
---------- Begin Simulation Statistics ----------
final_tick                                10283072000                       # Number of ticks from beginning of simulation (restored from checkpoints and never reset)
host_inst_rate                                 161578                       # Simulator instruction rate (inst/s)
host_mem_usage                                 678756                       # Number of bytes of host memory used
host_op_rate                                   161876                       # Simulator op (including micro ops) rate (op/s)
host_seconds                                    59.77                       # Real time elapsed on the host
host_tick_rate                              172031527                       # Simulator tick rate (ticks/s)
sim_freq                                 1000000000000                       # Frequency of simulated ticks
sim_insts                                     9658194                       # Number of instructions simulated
sim_ops                                       9676035                       # Number of ops (including micro ops) simulated
sim_seconds                                  0.010283                       # Number of seconds simulated
sim_ticks                                 10283072000                       # Number of ticks simulated
system.cpu.branchPred.BTBCorrect                    0                       # Number of correct BTB predictions (this stat may not work properly.
system.cpu.branchPred.BTBHitPct             98.962848                       # BTB Hit Percentage
system.cpu.branchPred.BTBHits                 1014960                       # Number of BTB hits
system.cpu.branchPred.BTBLookups              1025597                       # Number of BTB lookups
system.cpu.branchPred.RASInCorrect                  5                       # Number of incorrect RAS predictions.
system.cpu.branchPred.condIncorrect              6984                       # Number of conditional branches incorrect
system.cpu.branchPred.condPredicted           1021807                       # Number of conditional branches predicted
system.cpu.branchPred.indirectHits                 23                       # Number of indirect target hits.
system.cpu.branchPred.indirectLookups             149                       # Number of indirect predictor lookups.
system.cpu.branchPred.indirectMisses              126                       # Number of indirect misses.
system.cpu.branchPred.lookups                 1031594                       # Number of BP lookups
system.cpu.branchPred.usedRAS                    3654                       # Number of times the RAS was used to get a target.
system.cpu.branchPredindirectMispredicted           63                       # Number of mispredicted indirect branches.
system.cpu.committedInsts                     9658194                       # Number of instructions committed
system.cpu.committedOps                       9676035                       # Number of ops (including micro ops) committed
system.cpu.cpi                               1.064699                       # CPI: cycles per instruction
system.cpu.discardedOps                         16843                       # Number of ops (including micro ops) which were discarded before commit
system.cpu.dtb.accesses                             0                       # DTB accesses
system.cpu.dtb.align_faults                         0                       # Number of TLB faults due to alignment restrictions
system.cpu.dtb.domain_faults                        0                       # Number of TLB faults due to domain restrictions
system.cpu.dtb.flush_entries                        0                       # Number of entries that have been flushed from TLB
system.cpu.dtb.flush_tlb                            0                       # Number of times complete TLB was flushed
system.cpu.dtb.flush_tlb_asid                       0                       # Number of times TLB was flushed by ASID
system.cpu.dtb.flush_tlb_mva                        0                       # Number of times TLB was flushed by MVA
system.cpu.dtb.flush_tlb_mva_asid                   0                       # Number of times TLB was flushed by MVA & ASID
system.cpu.dtb.hits                                 0                       # DTB hits
system.cpu.dtb.inst_accesses                        0                       # ITB inst accesses
system.cpu.dtb.inst_hits                            0                       # ITB inst hits
system.cpu.dtb.inst_misses                          0                       # ITB inst misses
system.cpu.dtb.misses                               0                       # DTB misses
system.cpu.dtb.perms_faults                         0                       # Number of TLB faults due to permissions restrictions
system.cpu.dtb.prefetch_faults                      0                       # Number of TLB faults due to prefetch
system.cpu.dtb.read_accesses                        0                       # DTB read accesses
system.cpu.dtb.read_hits                            0                       # DTB read hits
system.cpu.dtb.read_misses                          0                       # DTB read misses
system.cpu.dtb.stage2_mmu.stage2_tlb.accesses            0                       # DTB accesses
system.cpu.dtb.stage2_mmu.stage2_tlb.align_faults            0                       # Number of TLB faults due to alignment restrictions
system.cpu.dtb.stage2_mmu.stage2_tlb.domain_faults            0                       # Number of TLB faults due to domain restrictions
system.cpu.dtb.stage2_mmu.stage2_tlb.flush_entries            0                       # Number of entries that have been flushed from TLB
system.cpu.dtb.stage2_mmu.stage2_tlb.flush_tlb            0                       # Number of times complete TLB was flushed
system.cpu.dtb.stage2_mmu.stage2_tlb.flush_tlb_asid            0                       # Number of times TLB was flushed by ASID
system.cpu.dtb.stage2_mmu.stage2_tlb.flush_tlb_mva            0                       # Number of times TLB was flushed by MVA
system.cpu.dtb.stage2_mmu.stage2_tlb.flush_tlb_mva_asid            0                       # Number of times TLB was flushed by MVA & ASID
system.cpu.dtb.stage2_mmu.stage2_tlb.hits            0                       # DTB hits
system.cpu.dtb.stage2_mmu.stage2_tlb.inst_accesses            0                       # ITB inst accesses
system.cpu.dtb.stage2_mmu.stage2_tlb.inst_hits            0                       # ITB inst hits
system.cpu.dtb.stage2_mmu.stage2_tlb.inst_misses            0                       # ITB inst misses
system.cpu.dtb.stage2_mmu.stage2_tlb.misses            0                       # DTB misses
system.cpu.dtb.stage2_mmu.stage2_tlb.perms_faults            0                       # Number of TLB faults due to permissions restrictions
system.cpu.dtb.stage2_mmu.stage2_tlb.prefetch_faults            0                       # Number of TLB faults due to prefetch
system.cpu.dtb.stage2_mmu.stage2_tlb.read_accesses            0                       # DTB read accesses
system.cpu.dtb.stage2_mmu.stage2_tlb.read_hits            0                       # DTB read hits
system.cpu.dtb.stage2_mmu.stage2_tlb.read_misses            0                       # DTB read misses
system.cpu.dtb.stage2_mmu.stage2_tlb.walker.walkRequestOrigin_Requested::Data            0                       # Table walker requests started/completed, data/inst
system.cpu.dtb.stage2_mmu.stage2_tlb.walker.walkRequestOrigin_Requested::Inst            0                       # Table walker requests started/completed, data/inst
system.cpu.dtb.stage2_mmu.stage2_tlb.walker.walkRequestOrigin_Requested::total            0                       # Table walker requests started/completed, data/inst
system.cpu.dtb.stage2_mmu.stage2_tlb.walker.walkRequestOrigin_Completed::Data            0                       # Table walker requests started/completed, data/inst
system.cpu.dtb.stage2_mmu.stage2_tlb.walker.walkRequestOrigin_Completed::Inst            0                       # Table walker requests started/completed, data/inst
system.cpu.dtb.stage2_mmu.stage2_tlb.walker.walkRequestOrigin_Completed::total            0                       # Table walker requests started/completed, data/inst
system.cpu.dtb.stage2_mmu.stage2_tlb.walker.walkRequestOrigin::total            0                       # Table walker requests started/completed, data/inst
system.cpu.dtb.stage2_mmu.stage2_tlb.walker.walks            0                       # Table walker walks requested
system.cpu.dtb.stage2_mmu.stage2_tlb.write_accesses            0                       # DTB write accesses
system.cpu.dtb.stage2_mmu.stage2_tlb.write_hits            0                       # DTB write hits
system.cpu.dtb.stage2_mmu.stage2_tlb.write_misses            0                       # DTB write misses
system.cpu.dtb.walker.walkRequestOrigin_Requested::Data            0                       # Table walker requests started/completed, data/inst
system.cpu.dtb.walker.walkRequestOrigin_Requested::Inst            0                       # Table walker requests started/completed, data/inst
system.cpu.dtb.walker.walkRequestOrigin_Requested::total            0                       # Table walker requests started/completed, data/inst
system.cpu.dtb.walker.walkRequestOrigin_Completed::Data            0                       # Table walker requests started/completed, data/inst
system.cpu.dtb.walker.walkRequestOrigin_Completed::Inst            0                       # Table walker requests started/completed, data/inst
system.cpu.dtb.walker.walkRequestOrigin_Completed::total            0                       # Table walker requests started/completed, data/inst
system.cpu.dtb.walker.walkRequestOrigin::total            0                       # Table walker requests started/completed, data/inst
system.cpu.dtb.walker.walks                         0                       # Table walker walks requested
system.cpu.dtb.write_accesses                       0                       # DTB write accesses
system.cpu.dtb.write_hits                           0                       # DTB write hits
system.cpu.dtb.write_misses                         0                       # DTB write misses
system.cpu.fetch2.amo_instructions                  0                       # Number of memory atomic instructions successfully decoded
system.cpu.fetch2.fp_instructions                   0                       # Number of floating point instructions successfully decoded
system.cpu.fetch2.int_instructions            3600929                       # Number of integer instructions successfully decoded
system.cpu.fetch2.load_instructions           4565965                       # Number of memory load instructions successfully decoded
system.cpu.fetch2.store_instructions           527511                       # Number of memory store instructions successfully decoded
system.cpu.fetch2.vec_instructions                  0                       # Number of SIMD instructions successfully decoded
system.cpu.idleCycles                           31475                       # Total number of cycles that the object has spent stopped
system.cpu.ipc                               0.939232                       # IPC: instructions per cycle
system.cpu.itb.accesses                             0                       # DTB accesses
system.cpu.itb.align_faults                         0                       # Number of TLB faults due to alignment restrictions
system.cpu.itb.domain_faults                        0                       # Number of TLB faults due to domain restrictions
system.cpu.itb.flush_entries                        0                       # Number of entries that have been flushed from TLB
system.cpu.itb.flush_tlb                            0                       # Number of times complete TLB was flushed
system.cpu.itb.flush_tlb_asid                       0                       # Number of times TLB was flushed by ASID
system.cpu.itb.flush_tlb_mva                        0                       # Number of times TLB was flushed by MVA
system.cpu.itb.flush_tlb_mva_asid                   0                       # Number of times TLB was flushed by MVA & ASID
system.cpu.itb.hits                                 0                       # DTB hits
system.cpu.itb.inst_accesses                        0                       # ITB inst accesses
system.cpu.itb.inst_hits                            0                       # ITB inst hits
system.cpu.itb.inst_misses                          0                       # ITB inst misses
system.cpu.itb.misses                               0                       # DTB misses
system.cpu.itb.perms_faults                         0                       # Number of TLB faults due to permissions restrictions
system.cpu.itb.prefetch_faults                      0                       # Number of TLB faults due to prefetch
system.cpu.itb.read_accesses                        0                       # DTB read accesses
system.cpu.itb.read_hits                            0                       # DTB read hits
system.cpu.itb.read_misses                          0                       # DTB read misses
system.cpu.itb.stage2_mmu.stage2_tlb.accesses            0                       # DTB accesses
system.cpu.itb.stage2_mmu.stage2_tlb.align_faults            0                       # Number of TLB faults due to alignment restrictions
system.cpu.itb.stage2_mmu.stage2_tlb.domain_faults            0                       # Number of TLB faults due to domain restrictions
system.cpu.itb.stage2_mmu.stage2_tlb.flush_entries            0                       # Number of entries that have been flushed from TLB
system.cpu.itb.stage2_mmu.stage2_tlb.flush_tlb            0                       # Number of times complete TLB was flushed
system.cpu.itb.stage2_mmu.stage2_tlb.flush_tlb_asid            0                       # Number of times TLB was flushed by ASID
system.cpu.itb.stage2_mmu.stage2_tlb.flush_tlb_mva            0                       # Number of times TLB was flushed by MVA
system.cpu.itb.stage2_mmu.stage2_tlb.flush_tlb_mva_asid            0                       # Number of times TLB was flushed by MVA & ASID
system.cpu.itb.stage2_mmu.stage2_tlb.hits            0                       # DTB hits
system.cpu.itb.stage2_mmu.stage2_tlb.inst_accesses            0                       # ITB inst accesses
system.cpu.itb.stage2_mmu.stage2_tlb.inst_hits            0                       # ITB inst hits
system.cpu.itb.stage2_mmu.stage2_tlb.inst_misses            0                       # ITB inst misses
system.cpu.itb.stage2_mmu.stage2_tlb.misses            0                       # DTB misses
system.cpu.itb.stage2_mmu.stage2_tlb.perms_faults            0                       # Number of TLB faults due to permissions restrictions
system.cpu.itb.stage2_mmu.stage2_tlb.prefetch_faults            0                       # Number of TLB faults due to prefetch
system.cpu.itb.stage2_mmu.stage2_tlb.read_accesses            0                       # DTB read accesses
system.cpu.itb.stage2_mmu.stage2_tlb.read_hits            0                       # DTB read hits
system.cpu.itb.stage2_mmu.stage2_tlb.read_misses            0                       # DTB read misses
system.cpu.itb.stage2_mmu.stage2_tlb.walker.walkRequestOrigin_Requested::Data            0                       # Table walker requests started/completed, data/inst
system.cpu.itb.stage2_mmu.stage2_tlb.walker.walkRequestOrigin_Requested::Inst            0                       # Table walker requests started/completed, data/inst
system.cpu.itb.stage2_mmu.stage2_tlb.walker.walkRequestOrigin_Requested::total            0                       # Table walker requests started/completed, data/inst
system.cpu.itb.stage2_mmu.stage2_tlb.walker.walkRequestOrigin_Completed::Data            0                       # Table walker requests started/completed, data/inst
system.cpu.itb.stage2_mmu.stage2_tlb.walker.walkRequestOrigin_Completed::Inst            0                       # Table walker requests started/completed, data/inst
system.cpu.itb.stage2_mmu.stage2_tlb.walker.walkRequestOrigin_Completed::total            0                       # Table walker requests started/completed, data/inst
system.cpu.itb.stage2_mmu.stage2_tlb.walker.walkRequestOrigin::total            0                       # Table walker requests started/completed, data/inst
system.cpu.itb.stage2_mmu.stage2_tlb.walker.walks            0                       # Table walker walks requested
system.cpu.itb.stage2_mmu.stage2_tlb.write_accesses            0                       # DTB write accesses
system.cpu.itb.stage2_mmu.stage2_tlb.write_hits            0                       # DTB write hits
system.cpu.itb.stage2_mmu.stage2_tlb.write_misses            0                       # DTB write misses
system.cpu.itb.walker.walkRequestOrigin_Requested::Data            0                       # Table walker requests started/completed, data/inst
system.cpu.itb.walker.walkRequestOrigin_Requested::Inst            0                       # Table walker requests started/completed, data/inst
system.cpu.itb.walker.walkRequestOrigin_Requested::total            0                       # Table walker requests started/completed, data/inst
system.cpu.itb.walker.walkRequestOrigin_Completed::Data            0                       # Table walker requests started/completed, data/inst
system.cpu.itb.walker.walkRequestOrigin_Completed::Inst            0                       # Table walker requests started/completed, data/inst
system.cpu.itb.walker.walkRequestOrigin_Completed::total            0                       # Table walker requests started/completed, data/inst
system.cpu.itb.walker.walkRequestOrigin::total            0                       # Table walker requests started/completed, data/inst
system.cpu.itb.walker.walks                         0                       # Table walker walks requested
system.cpu.itb.write_accesses                       0                       # DTB write accesses
system.cpu.itb.write_hits                           0                       # DTB write hits
system.cpu.itb.write_misses                         0                       # DTB write misses
system.cpu.numCycles                         10283072                       # number of cpu cycles simulated
system.cpu.numFetchSuspends                         0                       # Number of times Execute suspended instruction fetching
system.cpu.numWorkItemsCompleted                    0                       # number of work items this cpu completed
system.cpu.numWorkItemsStarted                      0                       # number of work items this cpu started
system.cpu.op_class_0::No_OpClass                   0      0.00%      0.00% # Class of committed instruction
system.cpu.op_class_0::IntAlu                 4602315     47.56%     47.56% # Class of committed instruction
system.cpu.op_class_0::IntMult                   2166      0.02%     47.59% # Class of committed instruction
system.cpu.op_class_0::IntDiv                       0      0.00%     47.59% # Class of committed instruction
system.cpu.op_class_0::FloatAdd                     0      0.00%     47.59% # Class of committed instruction
system.cpu.op_class_0::FloatCmp                     0      0.00%     47.59% # Class of committed instruction
system.cpu.op_class_0::FloatCvt                     0      0.00%     47.59% # Class of committed instruction
system.cpu.op_class_0::FloatMult                    0      0.00%     47.59% # Class of committed instruction
system.cpu.op_class_0::FloatMultAcc                 0      0.00%     47.59% # Class of committed instruction
system.cpu.op_class_0::FloatDiv                     0      0.00%     47.59% # Class of committed instruction
system.cpu.op_class_0::FloatMisc                    0      0.00%     47.59% # Class of committed instruction
system.cpu.op_class_0::FloatSqrt                    0      0.00%     47.59% # Class of committed instruction
system.cpu.op_class_0::SimdAdd                      0      0.00%     47.59% # Class of committed instruction
system.cpu.op_class_0::SimdAddAcc                   0      0.00%     47.59% # Class of committed instruction
system.cpu.op_class_0::SimdAlu                      0      0.00%     47.59% # Class of committed instruction
system.cpu.op_class_0::SimdCmp                      0      0.00%     47.59% # Class of committed instruction
system.cpu.op_class_0::SimdCvt                      0      0.00%     47.59% # Class of committed instruction
system.cpu.op_class_0::SimdMisc                     0      0.00%     47.59% # Class of committed instruction
system.cpu.op_class_0::SimdMult                     0      0.00%     47.59% # Class of committed instruction
system.cpu.op_class_0::SimdMultAcc                  0      0.00%     47.59% # Class of committed instruction
system.cpu.op_class_0::SimdShift                    0      0.00%     47.59% # Class of committed instruction
system.cpu.op_class_0::SimdShiftAcc                 0      0.00%     47.59% # Class of committed instruction
system.cpu.op_class_0::SimdDiv                      0      0.00%     47.59% # Class of committed instruction
system.cpu.op_class_0::SimdSqrt                     0      0.00%     47.59% # Class of committed instruction
system.cpu.op_class_0::SimdFloatAdd                 0      0.00%     47.59% # Class of committed instruction
system.cpu.op_class_0::SimdFloatAlu                 0      0.00%     47.59% # Class of committed instruction
system.cpu.op_class_0::SimdFloatCmp                 0      0.00%     47.59% # Class of committed instruction
system.cpu.op_class_0::SimdFloatCvt                 0      0.00%     47.59% # Class of committed instruction
system.cpu.op_class_0::SimdFloatDiv                 0      0.00%     47.59% # Class of committed instruction
system.cpu.op_class_0::SimdFloatMisc               21      0.00%     47.59% # Class of committed instruction
system.cpu.op_class_0::SimdFloatMult                0      0.00%     47.59% # Class of committed instruction
system.cpu.op_class_0::SimdFloatMultAcc             0      0.00%     47.59% # Class of committed instruction
system.cpu.op_class_0::SimdFloatSqrt                0      0.00%     47.59% # Class of committed instruction
system.cpu.op_class_0::SimdReduceAdd                0      0.00%     47.59% # Class of committed instruction
system.cpu.op_class_0::SimdReduceAlu                0      0.00%     47.59% # Class of committed instruction
system.cpu.op_class_0::SimdReduceCmp                0      0.00%     47.59% # Class of committed instruction
system.cpu.op_class_0::SimdFloatReduceAdd            0      0.00%     47.59% # Class of committed instruction
system.cpu.op_class_0::SimdFloatReduceCmp            0      0.00%     47.59% # Class of committed instruction
system.cpu.op_class_0::SimdAes                      0      0.00%     47.59% # Class of committed instruction
system.cpu.op_class_0::SimdAesMix                   0      0.00%     47.59% # Class of committed instruction
system.cpu.op_class_0::SimdSha1Hash                 0      0.00%     47.59% # Class of committed instruction
system.cpu.op_class_0::SimdSha1Hash2                0      0.00%     47.59% # Class of committed instruction
system.cpu.op_class_0::SimdSha256Hash               0      0.00%     47.59% # Class of committed instruction
system.cpu.op_class_0::SimdSha256Hash2              0      0.00%     47.59% # Class of committed instruction
system.cpu.op_class_0::SimdShaSigma2                0      0.00%     47.59% # Class of committed instruction
system.cpu.op_class_0::SimdShaSigma3                0      0.00%     47.59% # Class of committed instruction
system.cpu.op_class_0::SimdPredAlu                  0      0.00%     47.59% # Class of committed instruction
system.cpu.op_class_0::MemRead                4540166     46.92%     94.51% # Class of committed instruction
system.cpu.op_class_0::MemWrite                531367      5.49%    100.00% # Class of committed instruction
system.cpu.op_class_0::FloatMemRead                 0      0.00%    100.00% # Class of committed instruction
system.cpu.op_class_0::FloatMemWrite                0      0.00%    100.00% # Class of committed instruction
system.cpu.op_class_0::IprAccess                    0      0.00%    100.00% # Class of committed instruction
system.cpu.op_class_0::InstPrefetch                 0      0.00%    100.00% # Class of committed instruction
system.cpu.op_class_0::total                  9676035                       # Class of committed instruction
system.cpu.tickCycles                        10251597                       # Number of cycles that the object actually ticked
system.cpu.workload.numSyscalls                    12                       # Number of system calls
system.membus.snoop_filter.hit_multi_requests            5                       # Number of requests hitting in the snoop filter with multiple (>1) holders of the requested data.
system.membus.snoop_filter.hit_multi_snoops            0                       # Number of snoops hitting in the snoop filter with multiple (>1) holders of the requested data.
system.membus.snoop_filter.hit_single_requests          146                       # Number of requests hitting in the snoop filter with a single holder of the requested data.
system.membus.snoop_filter.hit_single_snoops            0                       # Number of snoops hitting in the snoop filter with a single holder of the requested data.
system.membus.snoop_filter.tot_requests           761                       # Total number of requests made to the snoop filter.
system.membus.snoop_filter.tot_snoops               0                       # Total number of snoops made to the snoop filter.
system.membus.pwrStateResidencyTicks::UNDEFINED  10283072000                       # Cumulative time (in ticks) in various power states
system.membus.trans_dist::ReadResp                512                       # Transaction distribution
system.membus.trans_dist::WritebackDirty            1                       # Transaction distribution
system.membus.trans_dist::WritebackClean          121                       # Transaction distribution
system.membus.trans_dist::CleanEvict                3                       # Transaction distribution
system.membus.trans_dist::ReadExReq               124                       # Transaction distribution
system.membus.trans_dist::ReadExResp              124                       # Transaction distribution
system.membus.trans_dist::ReadCleanReq            406                       # Transaction distribution
system.membus.trans_dist::ReadSharedReq           106                       # Transaction distribution
system.membus.pkt_count_system.cpu.icache.mem_side::system.mem_ctrls.port          933                       # Packet count per connected master and slave (bytes)
system.membus.pkt_count_system.cpu.dcache.mem_side::system.mem_ctrls.port          464                       # Packet count per connected master and slave (bytes)
system.membus.pkt_count::total                   1397                       # Packet count per connected master and slave (bytes)
system.membus.pkt_size_system.cpu.icache.mem_side::system.mem_ctrls.port        33728                       # Cumulative packet size per connected master and slave (bytes)
system.membus.pkt_size_system.cpu.dcache.mem_side::system.mem_ctrls.port        14784                       # Cumulative packet size per connected master and slave (bytes)
system.membus.pkt_size::total                   48512                       # Cumulative packet size per connected master and slave (bytes)
system.membus.snoops                                0                       # Total snoops (count)
system.membus.snoopTraffic                          0                       # Total snoop traffic (bytes)
system.membus.snoop_fanout::samples               636                       # Request fanout histogram
system.membus.snoop_fanout::mean             0.040881                       # Request fanout histogram
system.membus.snoop_fanout::stdev            0.198169                       # Request fanout histogram
system.membus.snoop_fanout::underflows              0      0.00%      0.00% # Request fanout histogram
system.membus.snoop_fanout::0                     610     95.91%     95.91% # Request fanout histogram
system.membus.snoop_fanout::1                      26      4.09%    100.00% # Request fanout histogram
system.membus.snoop_fanout::2                       0      0.00%    100.00% # Request fanout histogram
system.membus.snoop_fanout::overflows               0      0.00%    100.00% # Request fanout histogram
system.membus.snoop_fanout::min_value               0                       # Request fanout histogram
system.membus.snoop_fanout::max_value               1                       # Request fanout histogram
system.membus.snoop_fanout::total                 636                       # Request fanout histogram
system.membus.reqLayer0.occupancy             1249000                       # Layer occupancy (ticks)
system.membus.reqLayer0.utilization               0.0                       # Layer utilization (%)
system.membus.respLayer1.occupancy            2150500                       # Layer occupancy (ticks)
system.membus.respLayer1.utilization              0.0                       # Layer utilization (%)
system.membus.respLayer2.occupancy            1226000                       # Layer occupancy (ticks)
system.membus.respLayer2.utilization              0.0                       # Layer utilization (%)
system.voltage_domain.voltage                       1                       # Voltage in Volts
system.clk_domain.clock                          1000                       # Clock period in ticks
system.cpu_voltage_domain.voltage                   1                       # Voltage in Volts
system.mem_ctrls.pwrStateResidencyTicks::UNDEFINED  10283072000                       # Cumulative time (in ticks) in various power states
system.mem_ctrls.bytes_read::.cpu.inst          25984                       # Number of bytes read from this memory
system.mem_ctrls.bytes_read::.cpu.data          14720                       # Number of bytes read from this memory
system.mem_ctrls.bytes_read::total              40704                       # Number of bytes read from this memory
system.mem_ctrls.bytes_inst_read::.cpu.inst        25984                       # Number of instructions bytes read from this memory
system.mem_ctrls.bytes_inst_read::total         25984                       # Number of instructions bytes read from this memory
system.mem_ctrls.bytes_written::.writebacks           64                       # Number of bytes written to this memory
system.mem_ctrls.bytes_written::total              64                       # Number of bytes written to this memory
system.mem_ctrls.num_reads::.cpu.inst             406                       # Number of read requests responded to by this memory
system.mem_ctrls.num_reads::.cpu.data             230                       # Number of read requests responded to by this memory
system.mem_ctrls.num_reads::total                 636                       # Number of read requests responded to by this memory
system.mem_ctrls.num_writes::.writebacks            1                       # Number of write requests responded to by this memory
system.mem_ctrls.num_writes::total                  1                       # Number of write requests responded to by this memory
system.mem_ctrls.bw_read::.cpu.inst           2526871                       # Total read bandwidth from this memory (bytes/s)
system.mem_ctrls.bw_read::.cpu.data           1431479                       # Total read bandwidth from this memory (bytes/s)
system.mem_ctrls.bw_read::total               3958350                       # Total read bandwidth from this memory (bytes/s)
system.mem_ctrls.bw_inst_read::.cpu.inst      2526871                       # Instruction read bandwidth from this memory (bytes/s)
system.mem_ctrls.bw_inst_read::total          2526871                       # Instruction read bandwidth from this memory (bytes/s)
system.mem_ctrls.bw_write::.writebacks           6224                       # Write bandwidth from this memory (bytes/s)
system.mem_ctrls.bw_write::total                 6224                       # Write bandwidth from this memory (bytes/s)
system.mem_ctrls.bw_total::.writebacks           6224                       # Total bandwidth to/from this memory (bytes/s)
system.mem_ctrls.bw_total::.cpu.inst          2526871                       # Total bandwidth to/from this memory (bytes/s)
system.mem_ctrls.bw_total::.cpu.data          1431479                       # Total bandwidth to/from this memory (bytes/s)
system.mem_ctrls.bw_total::total              3964574                       # Total bandwidth to/from this memory (bytes/s)
system.mem_ctrls.avgPriority_.writebacks::samples       116.00                       # Average QoS priority value for accepted requests
system.mem_ctrls.avgPriority_.cpu.inst::samples       393.00                       # Average QoS priority value for accepted requests
system.mem_ctrls.avgPriority_.cpu.data::samples       230.00                       # Average QoS priority value for accepted requests
system.mem_ctrls.priorityMinLatency      0.000000018750                       # per QoS priority minimum request to response latency (s)
system.mem_ctrls.priorityMaxLatency      0.020501334500                       # per QoS priority maximum request to response latency (s)
system.mem_ctrls.numReadWriteTurnArounds            5                       # Number of turnarounds from READ to WRITE
system.mem_ctrls.numWriteReadTurnArounds            6                       # Number of turnarounds from WRITE to READ
system.mem_ctrls.numStayReadState                3995                       # Number of times bus staying in READ state
system.mem_ctrls.numStayWriteState                 88                       # Number of times bus staying in WRITE state
system.mem_ctrls.readReqs                         636                       # Number of read requests accepted
system.mem_ctrls.writeReqs                        118                       # Number of write requests accepted
system.mem_ctrls.readBursts                       636                       # Number of DRAM read bursts, including those serviced by the write queue
system.mem_ctrls.writeBursts                      118                       # Number of DRAM write bursts, including those merged in the write queue
system.mem_ctrls.servicedByWrQ                     13                       # Number of DRAM read bursts serviced by the write queue
system.mem_ctrls.mergedWrBursts                     2                       # Number of DRAM write bursts merged with an existing one
system.mem_ctrls.neitherReadNorWriteReqs            0                       # Number of requests that are neither read nor write
system.mem_ctrls.perBankRdBursts::0                63                       # Per bank write bursts
system.mem_ctrls.perBankRdBursts::1                 2                       # Per bank write bursts
system.mem_ctrls.perBankRdBursts::2                39                       # Per bank write bursts
system.mem_ctrls.perBankRdBursts::3                 0                       # Per bank write bursts
system.mem_ctrls.perBankRdBursts::4                14                       # Per bank write bursts
system.mem_ctrls.perBankRdBursts::5                30                       # Per bank write bursts
system.mem_ctrls.perBankRdBursts::6                60                       # Per bank write bursts
system.mem_ctrls.perBankRdBursts::7                20                       # Per bank write bursts
system.mem_ctrls.perBankRdBursts::8               108                       # Per bank write bursts
system.mem_ctrls.perBankRdBursts::9                80                       # Per bank write bursts
system.mem_ctrls.perBankRdBursts::10               79                       # Per bank write bursts
system.mem_ctrls.perBankRdBursts::11               72                       # Per bank write bursts
system.mem_ctrls.perBankRdBursts::12               35                       # Per bank write bursts
system.mem_ctrls.perBankRdBursts::13                8                       # Per bank write bursts
system.mem_ctrls.perBankRdBursts::14               11                       # Per bank write bursts
system.mem_ctrls.perBankRdBursts::15                2                       # Per bank write bursts
system.mem_ctrls.perBankWrBursts::0                27                       # Per bank write bursts
system.mem_ctrls.perBankWrBursts::1                 0                       # Per bank write bursts
system.mem_ctrls.perBankWrBursts::2                11                       # Per bank write bursts
system.mem_ctrls.perBankWrBursts::3                 0                       # Per bank write bursts
system.mem_ctrls.perBankWrBursts::4                 1                       # Per bank write bursts
system.mem_ctrls.perBankWrBursts::5                 0                       # Per bank write bursts
system.mem_ctrls.perBankWrBursts::6                 0                       # Per bank write bursts
system.mem_ctrls.perBankWrBursts::7                 2                       # Per bank write bursts
system.mem_ctrls.perBankWrBursts::8                26                       # Per bank write bursts
system.mem_ctrls.perBankWrBursts::9                 3                       # Per bank write bursts
system.mem_ctrls.perBankWrBursts::10                0                       # Per bank write bursts
system.mem_ctrls.perBankWrBursts::11                5                       # Per bank write bursts
system.mem_ctrls.perBankWrBursts::12               19                       # Per bank write bursts
system.mem_ctrls.perBankWrBursts::13                0                       # Per bank write bursts
system.mem_ctrls.perBankWrBursts::14                0                       # Per bank write bursts
system.mem_ctrls.perBankWrBursts::15                0                       # Per bank write bursts
system.mem_ctrls.avgRdQLen                       1.00                       # Average read queue length when enqueuing
system.mem_ctrls.avgWrQLen                      24.90                       # Average write queue length when enqueuing
system.mem_ctrls.totQLat                      3982250                       # Total ticks spent queuing
system.mem_ctrls.totBusLat                    3115000                       # Total ticks spent in databus transfers
system.mem_ctrls.totMemAccLat                15663500                       # Total ticks spent from burst creation until serviced by the DRAM
system.mem_ctrls.avgQLat                      6392.05                       # Average queueing delay per DRAM burst
system.mem_ctrls.avgBusLat                    5000.00                       # Average bus latency per DRAM burst
system.mem_ctrls.avgMemAccLat                25142.05                       # Average memory access latency per DRAM burst
system.mem_ctrls.numRdRetry                         0                       # Number of times read queue was full causing retry
system.mem_ctrls.numWrRetry                         0                       # Number of times write queue was full causing retry
system.mem_ctrls.readRowHits                      500                       # Number of row buffer hits during reads
system.mem_ctrls.writeRowHits                      77                       # Number of row buffer hits during writes
system.mem_ctrls.readRowHitRate                 80.26                       # Row buffer hit rate for reads
system.mem_ctrls.writeRowHitRate                66.38                       # Row buffer hit rate for writes
system.mem_ctrls.readPktSize::0                     0                       # Read request sizes (log2)
system.mem_ctrls.readPktSize::1                     0                       # Read request sizes (log2)
system.mem_ctrls.readPktSize::2                     0                       # Read request sizes (log2)
system.mem_ctrls.readPktSize::3                     0                       # Read request sizes (log2)
system.mem_ctrls.readPktSize::4                     0                       # Read request sizes (log2)
system.mem_ctrls.readPktSize::5                     0                       # Read request sizes (log2)
system.mem_ctrls.readPktSize::6                   636                       # Read request sizes (log2)
system.mem_ctrls.writePktSize::0                    0                       # Write request sizes (log2)
system.mem_ctrls.writePktSize::1                    0                       # Write request sizes (log2)
system.mem_ctrls.writePktSize::2                    0                       # Write request sizes (log2)
system.mem_ctrls.writePktSize::3                    0                       # Write request sizes (log2)
system.mem_ctrls.writePktSize::4                    0                       # Write request sizes (log2)
system.mem_ctrls.writePktSize::5                    0                       # Write request sizes (log2)
system.mem_ctrls.writePktSize::6                  118                       # Write request sizes (log2)
system.mem_ctrls.rdQLenPdf::0                     536                       # What read queue length does an incoming req see
system.mem_ctrls.rdQLenPdf::1                      83                       # What read queue length does an incoming req see
system.mem_ctrls.rdQLenPdf::2                       4                       # What read queue length does an incoming req see
system.mem_ctrls.rdQLenPdf::3                       0                       # What read queue length does an incoming req see
system.mem_ctrls.rdQLenPdf::4                       0                       # What read queue length does an incoming req see
system.mem_ctrls.rdQLenPdf::5                       0                       # What read queue length does an incoming req see
system.mem_ctrls.rdQLenPdf::6                       0                       # What read queue length does an incoming req see
system.mem_ctrls.rdQLenPdf::7                       0                       # What read queue length does an incoming req see
system.mem_ctrls.rdQLenPdf::8                       0                       # What read queue length does an incoming req see
system.mem_ctrls.rdQLenPdf::9                       0                       # What read queue length does an incoming req see
system.mem_ctrls.rdQLenPdf::10                      0                       # What read queue length does an incoming req see
system.mem_ctrls.rdQLenPdf::11                      0                       # What read queue length does an incoming req see
system.mem_ctrls.rdQLenPdf::12                      0                       # What read queue length does an incoming req see
system.mem_ctrls.rdQLenPdf::13                      0                       # What read queue length does an incoming req see
system.mem_ctrls.rdQLenPdf::14                      0                       # What read queue length does an incoming req see
system.mem_ctrls.rdQLenPdf::15                      0                       # What read queue length does an incoming req see
system.mem_ctrls.rdQLenPdf::16                      0                       # What read queue length does an incoming req see
system.mem_ctrls.rdQLenPdf::17                      0                       # What read queue length does an incoming req see
system.mem_ctrls.rdQLenPdf::18                      0                       # What read queue length does an incoming req see
system.mem_ctrls.rdQLenPdf::19                      0                       # What read queue length does an incoming req see
system.mem_ctrls.rdQLenPdf::20                      0                       # What read queue length does an incoming req see
system.mem_ctrls.rdQLenPdf::21                      0                       # What read queue length does an incoming req see
system.mem_ctrls.rdQLenPdf::22                      0                       # What read queue length does an incoming req see
system.mem_ctrls.rdQLenPdf::23                      0                       # What read queue length does an incoming req see
system.mem_ctrls.rdQLenPdf::24                      0                       # What read queue length does an incoming req see
system.mem_ctrls.rdQLenPdf::25                      0                       # What read queue length does an incoming req see
system.mem_ctrls.rdQLenPdf::26                      0                       # What read queue length does an incoming req see
system.mem_ctrls.rdQLenPdf::27                      0                       # What read queue length does an incoming req see
system.mem_ctrls.rdQLenPdf::28                      0                       # What read queue length does an incoming req see
system.mem_ctrls.rdQLenPdf::29                      0                       # What read queue length does an incoming req see
system.mem_ctrls.rdQLenPdf::30                      0                       # What read queue length does an incoming req see
system.mem_ctrls.rdQLenPdf::31                      0                       # What read queue length does an incoming req see
system.mem_ctrls.wrQLenPdf::0                       1                       # What write queue length does an incoming req see
system.mem_ctrls.wrQLenPdf::1                       1                       # What write queue length does an incoming req see
system.mem_ctrls.wrQLenPdf::2                       1                       # What write queue length does an incoming req see
system.mem_ctrls.wrQLenPdf::3                       1                       # What write queue length does an incoming req see
system.mem_ctrls.wrQLenPdf::4                       1                       # What write queue length does an incoming req see
system.mem_ctrls.wrQLenPdf::5                       1                       # What write queue length does an incoming req see
system.mem_ctrls.wrQLenPdf::6                       1                       # What write queue length does an incoming req see
system.mem_ctrls.wrQLenPdf::7                       1                       # What write queue length does an incoming req see
system.mem_ctrls.wrQLenPdf::8                       1                       # What write queue length does an incoming req see
system.mem_ctrls.wrQLenPdf::9                       1                       # What write queue length does an incoming req see
system.mem_ctrls.wrQLenPdf::10                      1                       # What write queue length does an incoming req see
system.mem_ctrls.wrQLenPdf::11                      1                       # What write queue length does an incoming req see
system.mem_ctrls.wrQLenPdf::12                      1                       # What write queue length does an incoming req see
system.mem_ctrls.wrQLenPdf::13                      1                       # What write queue length does an incoming req see
system.mem_ctrls.wrQLenPdf::14                      1                       # What write queue length does an incoming req see
system.mem_ctrls.wrQLenPdf::15                      2                       # What write queue length does an incoming req see
system.mem_ctrls.wrQLenPdf::16                      2                       # What write queue length does an incoming req see
system.mem_ctrls.wrQLenPdf::17                      6                       # What write queue length does an incoming req see
system.mem_ctrls.wrQLenPdf::18                      6                       # What write queue length does an incoming req see
system.mem_ctrls.wrQLenPdf::19                      6                       # What write queue length does an incoming req see
system.mem_ctrls.wrQLenPdf::20                      6                       # What write queue length does an incoming req see
system.mem_ctrls.wrQLenPdf::21                      6                       # What write queue length does an incoming req see
system.mem_ctrls.wrQLenPdf::22                      6                       # What write queue length does an incoming req see
system.mem_ctrls.wrQLenPdf::23                      6                       # What write queue length does an incoming req see
system.mem_ctrls.wrQLenPdf::24                      7                       # What write queue length does an incoming req see
system.mem_ctrls.wrQLenPdf::25                      6                       # What write queue length does an incoming req see
system.mem_ctrls.wrQLenPdf::26                      6                       # What write queue length does an incoming req see
system.mem_ctrls.wrQLenPdf::27                      6                       # What write queue length does an incoming req see
system.mem_ctrls.wrQLenPdf::28                      6                       # What write queue length does an incoming req see
system.mem_ctrls.wrQLenPdf::29                      6                       # What write queue length does an incoming req see
system.mem_ctrls.wrQLenPdf::30                      6                       # What write queue length does an incoming req see
system.mem_ctrls.wrQLenPdf::31                      6                       # What write queue length does an incoming req see
system.mem_ctrls.wrQLenPdf::32                      6                       # What write queue length does an incoming req see
system.mem_ctrls.wrQLenPdf::33                      0                       # What write queue length does an incoming req see
system.mem_ctrls.wrQLenPdf::34                      0                       # What write queue length does an incoming req see
system.mem_ctrls.wrQLenPdf::35                      0                       # What write queue length does an incoming req see
system.mem_ctrls.wrQLenPdf::36                      0                       # What write queue length does an incoming req see
system.mem_ctrls.wrQLenPdf::37                      0                       # What write queue length does an incoming req see
system.mem_ctrls.wrQLenPdf::38                      0                       # What write queue length does an incoming req see
system.mem_ctrls.wrQLenPdf::39                      0                       # What write queue length does an incoming req see
system.mem_ctrls.wrQLenPdf::40                      0                       # What write queue length does an incoming req see
system.mem_ctrls.wrQLenPdf::41                      0                       # What write queue length does an incoming req see
system.mem_ctrls.wrQLenPdf::42                      0                       # What write queue length does an incoming req see
system.mem_ctrls.wrQLenPdf::43                      0                       # What write queue length does an incoming req see
system.mem_ctrls.wrQLenPdf::44                      0                       # What write queue length does an incoming req see
system.mem_ctrls.wrQLenPdf::45                      0                       # What write queue length does an incoming req see
system.mem_ctrls.wrQLenPdf::46                      0                       # What write queue length does an incoming req see
system.mem_ctrls.wrQLenPdf::47                      0                       # What write queue length does an incoming req see
system.mem_ctrls.wrQLenPdf::48                      0                       # What write queue length does an incoming req see
system.mem_ctrls.wrQLenPdf::49                      0                       # What write queue length does an incoming req see
system.mem_ctrls.wrQLenPdf::50                      0                       # What write queue length does an incoming req see
system.mem_ctrls.wrQLenPdf::51                      0                       # What write queue length does an incoming req see
system.mem_ctrls.wrQLenPdf::52                      0                       # What write queue length does an incoming req see
system.mem_ctrls.wrQLenPdf::53                      0                       # What write queue length does an incoming req see
system.mem_ctrls.wrQLenPdf::54                      0                       # What write queue length does an incoming req see
system.mem_ctrls.wrQLenPdf::55                      0                       # What write queue length does an incoming req see
system.mem_ctrls.wrQLenPdf::56                      0                       # What write queue length does an incoming req see
system.mem_ctrls.wrQLenPdf::57                      0                       # What write queue length does an incoming req see
system.mem_ctrls.wrQLenPdf::58                      0                       # What write queue length does an incoming req see
system.mem_ctrls.wrQLenPdf::59                      0                       # What write queue length does an incoming req see
system.mem_ctrls.wrQLenPdf::60                      0                       # What write queue length does an incoming req see
system.mem_ctrls.wrQLenPdf::61                      0                       # What write queue length does an incoming req see
system.mem_ctrls.wrQLenPdf::62                      0                       # What write queue length does an incoming req see
system.mem_ctrls.wrQLenPdf::63                      0                       # What write queue length does an incoming req see
system.mem_ctrls.bytesPerActivate::samples          128                       # Bytes accessed per row activation
system.mem_ctrls.bytesPerActivate::mean           329                       # Bytes accessed per row activation
system.mem_ctrls.bytesPerActivate::gmean   228.386681                       # Bytes accessed per row activation
system.mem_ctrls.bytesPerActivate::stdev   290.881473                       # Bytes accessed per row activation
system.mem_ctrls.bytesPerActivate::0-127           25     19.53%     19.53% # Bytes accessed per row activation
system.mem_ctrls.bytesPerActivate::128-255           34     26.56%     46.09% # Bytes accessed per row activation
system.mem_ctrls.bytesPerActivate::256-383           33     25.78%     71.88% # Bytes accessed per row activation
system.mem_ctrls.bytesPerActivate::384-511           10      7.81%     79.69% # Bytes accessed per row activation
system.mem_ctrls.bytesPerActivate::512-639            5      3.91%     83.59% # Bytes accessed per row activation
system.mem_ctrls.bytesPerActivate::640-767            3      2.34%     85.94% # Bytes accessed per row activation
system.mem_ctrls.bytesPerActivate::768-895            4      3.12%     89.06% # Bytes accessed per row activation
system.mem_ctrls.bytesPerActivate::896-1023            3      2.34%     91.41% # Bytes accessed per row activation
system.mem_ctrls.bytesPerActivate::1024-1151           11      8.59%    100.00% # Bytes accessed per row activation
system.mem_ctrls.bytesPerActivate::total          128                       # Bytes accessed per row activation
system.mem_ctrls.rdPerTurnAround::samples            6                       # Reads before turning the bus around for writes
system.mem_ctrls.rdPerTurnAround::mean     103.833333                       # Reads before turning the bus around for writes
system.mem_ctrls.rdPerTurnAround::gmean     67.584326                       # Reads before turning the bus around for writes
system.mem_ctrls.rdPerTurnAround::stdev    132.745496                       # Reads before turning the bus around for writes
system.mem_ctrls.rdPerTurnAround::32-47             3     50.00%     50.00% # Reads before turning the bus around for writes
system.mem_ctrls.rdPerTurnAround::48-63             1     16.67%     66.67% # Reads before turning the bus around for writes
system.mem_ctrls.rdPerTurnAround::64-79             1     16.67%     83.33% # Reads before turning the bus around for writes
system.mem_ctrls.rdPerTurnAround::368-383            1     16.67%    100.00% # Reads before turning the bus around for writes
system.mem_ctrls.rdPerTurnAround::total             6                       # Reads before turning the bus around for writes
system.mem_ctrls.wrPerTurnAround::samples            5                       # Writes before turning the bus around for reads
system.mem_ctrls.wrPerTurnAround::mean      16.400000                       # Writes before turning the bus around for reads
system.mem_ctrls.wrPerTurnAround::gmean     16.381380                       # Writes before turning the bus around for reads
system.mem_ctrls.wrPerTurnAround::stdev      0.894427                       # Writes before turning the bus around for reads
system.mem_ctrls.wrPerTurnAround::16                4     80.00%     80.00% # Writes before turning the bus around for reads
system.mem_ctrls.wrPerTurnAround::18                1     20.00%    100.00% # Writes before turning the bus around for reads
system.mem_ctrls.wrPerTurnAround::total             5                       # Writes before turning the bus around for reads
system.mem_ctrls.bytesReadDRAM                  39872                       # Total number of bytes read from DRAM
system.mem_ctrls.bytesReadWrQ                     832                       # Total number of bytes read from write queue
system.mem_ctrls.bytesWritten                    6016                       # Total number of bytes written to DRAM
system.mem_ctrls.bytesReadSys                   40704                       # Total read bytes from the system interface side
system.mem_ctrls.bytesWrittenSys                 7552                       # Total written bytes from the system interface side
system.mem_ctrls.avgRdBW                         3.88                       # Average DRAM read bandwidth in MiByte/s
system.mem_ctrls.avgWrBW                         0.59                       # Average achieved write bandwidth in MiByte/s
system.mem_ctrls.avgRdBWSys                      3.96                       # Average system read bandwidth in MiByte/s
system.mem_ctrls.avgWrBWSys                      0.73                       # Average system write bandwidth in MiByte/s
system.mem_ctrls.peakBW                      12800.00                       # Theoretical peak bandwidth in MiByte/s
system.mem_ctrls.busUtil                         0.03                       # Data bus utilization in percentage
system.mem_ctrls.busUtilRead                     0.03                       # Data bus utilization in percentage for reads
system.mem_ctrls.busUtilWrite                    0.00                       # Data bus utilization in percentage for writes
system.mem_ctrls.totGap                   10283055000                       # Total gap between requests
system.mem_ctrls.avgGap                   13638003.98                       # Average gap between requests
system.mem_ctrls.masterReadBytes::.cpu.inst        25152                       # Per-master bytes read from memory
system.mem_ctrls.masterReadBytes::.cpu.data        14720                       # Per-master bytes read from memory
system.mem_ctrls.masterWriteBytes::.writebacks         6016                       # Per-master bytes write to memory
system.mem_ctrls.masterReadRate::.cpu.inst 2445961.673709957395                       # Per-master bytes read from memory rate (Bytes/sec)
system.mem_ctrls.masterReadRate::.cpu.data 1431478.842120331246                       # Per-master bytes read from memory rate (Bytes/sec)
system.mem_ctrls.masterWriteRate::.writebacks 585039.178953526658                       # Per-master bytes write to memory rate (Bytes/sec)
system.mem_ctrls.masterReadAccesses::.cpu.inst          406                       # Per-master read serviced memory accesses
system.mem_ctrls.masterReadAccesses::.cpu.data          230                       # Per-master read serviced memory accesses
system.mem_ctrls.masterWriteAccesses::.writebacks          118                       # Per-master write serviced memory accesses
system.mem_ctrls.masterReadTotalLat::.cpu.inst      9513500                       # Per-master read total memory access latency
system.mem_ctrls.masterReadTotalLat::.cpu.data      6150000                       # Per-master read total memory access latency
system.mem_ctrls.masterWriteTotalLat::.writebacks 255956540750                       # Per-master write total memory access latency
system.mem_ctrls.masterReadAvgLat::.cpu.inst     23432.27                       # Per-master read average memory access latency
system.mem_ctrls.masterReadAvgLat::.cpu.data     26739.13                       # Per-master read average memory access latency
system.mem_ctrls.masterWriteAvgLat::.writebacks 2169123226.69                       # Per-master write average memory access latency
system.mem_ctrls.pageHitRate                    78.08                       # Row buffer hit rate, read and write combined
system.mem_ctrls.rank1.actEnergy               685440                       # Energy for activate commands per rank (pJ)
system.mem_ctrls.rank1.preEnergy               341550                       # Energy for precharge commands per rank (pJ)
system.mem_ctrls.rank1.readEnergy             2820300                       # Energy for read commands per rank (pJ)
system.mem_ctrls.rank1.writeEnergy             245340                       # Energy for write commands per rank (pJ)
system.mem_ctrls.rank1.refreshEnergy     811324800.000000                       # Energy for refresh commands per rank (pJ)
system.mem_ctrls.rank1.actBackEnergy        200239290                       # Energy for active background per rank (pJ)
system.mem_ctrls.rank1.preBackEnergy       3780077280                       # Energy for precharge background per rank (pJ)
system.mem_ctrls.rank1.actPowerDownEnergy            0                       # Energy for active power-down per rank (pJ)
system.mem_ctrls.rank1.prePowerDownEnergy            0                       # Energy for precharge power-down per rank (pJ)
system.mem_ctrls.rank1.selfRefreshEnergy            0                       # Energy for self refresh per rank (pJ)
system.mem_ctrls.rank1.totalEnergy         4795734000                       # Total energy per rank (pJ)
system.mem_ctrls.rank1.averagePower        466.371722                       # Core power per rank (mW)
system.mem_ctrls.rank1.totalIdleTime                0                       # Total Idle time Per DRAM Rank
system.mem_ctrls.rank1.memoryStateTime::IDLE   9825575250                       # Time in different power states
system.mem_ctrls.rank1.memoryStateTime::REF    343200000                       # Time in different power states
system.mem_ctrls.rank1.memoryStateTime::SREF            0                       # Time in different power states
system.mem_ctrls.rank1.memoryStateTime::PRE_PDN            0                       # Time in different power states
system.mem_ctrls.rank1.memoryStateTime::ACT    114296750                       # Time in different power states
system.mem_ctrls.rank1.memoryStateTime::ACT_PDN            0                       # Time in different power states
system.mem_ctrls.rank0.actEnergy               314160                       # Energy for activate commands per rank (pJ)
system.mem_ctrls.rank0.preEnergy               144210                       # Energy for precharge commands per rank (pJ)
system.mem_ctrls.rank0.readEnergy             1627920                       # Energy for read commands per rank (pJ)
system.mem_ctrls.rank0.writeEnergy             214020                       # Energy for write commands per rank (pJ)
system.mem_ctrls.rank0.refreshEnergy     811324800.000000                       # Energy for refresh commands per rank (pJ)
system.mem_ctrls.rank0.actBackEnergy        169681590                       # Energy for active background per rank (pJ)
system.mem_ctrls.rank0.preBackEnergy       3805810080                       # Energy for precharge background per rank (pJ)
system.mem_ctrls.rank0.actPowerDownEnergy            0                       # Energy for active power-down per rank (pJ)
system.mem_ctrls.rank0.prePowerDownEnergy            0                       # Energy for precharge power-down per rank (pJ)
system.mem_ctrls.rank0.selfRefreshEnergy            0                       # Energy for self refresh per rank (pJ)
system.mem_ctrls.rank0.totalEnergy         4789116780                       # Total energy per rank (pJ)
system.mem_ctrls.rank0.averagePower        465.728216                       # Core power per rank (mW)
system.mem_ctrls.rank0.totalIdleTime                0                       # Total Idle time Per DRAM Rank
system.mem_ctrls.rank0.memoryStateTime::IDLE   9892700500                       # Time in different power states
system.mem_ctrls.rank0.memoryStateTime::REF    343200000                       # Time in different power states
system.mem_ctrls.rank0.memoryStateTime::SREF            0                       # Time in different power states
system.mem_ctrls.rank0.memoryStateTime::PRE_PDN            0                       # Time in different power states
system.mem_ctrls.rank0.memoryStateTime::ACT     47171500                       # Time in different power states
system.mem_ctrls.rank0.memoryStateTime::ACT_PDN            0                       # Time in different power states
system.cpu_clk_domain.clock                      1000                       # Clock period in ticks
system.cpu.pwrStateResidencyTicks::ON     10283072000                       # Cumulative time (in ticks) in various power states
system.cpu.icache.pwrStateResidencyTicks::UNDEFINED  10283072000                       # Cumulative time (in ticks) in various power states
system.cpu.icache.demand_hits::.cpu.inst      3062101                       # number of demand (read+write) hits
system.cpu.icache.demand_hits::total          3062101                       # number of demand (read+write) hits
system.cpu.icache.overall_hits::.cpu.inst      3062101                       # number of overall hits
system.cpu.icache.overall_hits::total         3062101                       # number of overall hits
system.cpu.icache.demand_misses::.cpu.inst          406                       # number of demand (read+write) misses
system.cpu.icache.demand_misses::total            406                       # number of demand (read+write) misses
system.cpu.icache.overall_misses::.cpu.inst          406                       # number of overall misses
system.cpu.icache.overall_misses::total           406                       # number of overall misses
system.cpu.icache.demand_miss_latency::.cpu.inst     23404000                       # number of demand (read+write) miss cycles
system.cpu.icache.demand_miss_latency::total     23404000                       # number of demand (read+write) miss cycles
system.cpu.icache.overall_miss_latency::.cpu.inst     23404000                       # number of overall miss cycles
system.cpu.icache.overall_miss_latency::total     23404000                       # number of overall miss cycles
system.cpu.icache.demand_accesses::.cpu.inst      3062507                       # number of demand (read+write) accesses
system.cpu.icache.demand_accesses::total      3062507                       # number of demand (read+write) accesses
system.cpu.icache.overall_accesses::.cpu.inst      3062507                       # number of overall (read+write) accesses
system.cpu.icache.overall_accesses::total      3062507                       # number of overall (read+write) accesses
system.cpu.icache.demand_miss_rate::.cpu.inst     0.000133                       # miss rate for demand accesses
system.cpu.icache.demand_miss_rate::total     0.000133                       # miss rate for demand accesses
system.cpu.icache.overall_miss_rate::.cpu.inst     0.000133                       # miss rate for overall accesses
system.cpu.icache.overall_miss_rate::total     0.000133                       # miss rate for overall accesses
system.cpu.icache.demand_avg_miss_latency::.cpu.inst 57645.320197                       # average overall miss latency
system.cpu.icache.demand_avg_miss_latency::total 57645.320197                       # average overall miss latency
system.cpu.icache.overall_avg_miss_latency::.cpu.inst 57645.320197                       # average overall miss latency
system.cpu.icache.overall_avg_miss_latency::total 57645.320197                       # average overall miss latency
system.cpu.icache.blocked_cycles::no_mshrs            0                       # number of cycles access was blocked
system.cpu.icache.blocked_cycles::no_targets            0                       # number of cycles access was blocked
system.cpu.icache.blocked::no_mshrs                 0                       # number of cycles access was blocked
system.cpu.icache.blocked::no_targets               0                       # number of cycles access was blocked
system.cpu.icache.avg_blocked_cycles::no_mshrs          nan                       # average number of cycles each access was blocked
system.cpu.icache.avg_blocked_cycles::no_targets          nan                       # average number of cycles each access was blocked
system.cpu.icache.writebacks::.writebacks          121                       # number of writebacks
system.cpu.icache.writebacks::total               121                       # number of writebacks
system.cpu.icache.demand_mshr_misses::.cpu.inst          406                       # number of demand (read+write) MSHR misses
system.cpu.icache.demand_mshr_misses::total          406                       # number of demand (read+write) MSHR misses
system.cpu.icache.overall_mshr_misses::.cpu.inst          406                       # number of overall MSHR misses
system.cpu.icache.overall_mshr_misses::total          406                       # number of overall MSHR misses
system.cpu.icache.demand_mshr_miss_latency::.cpu.inst     22592000                       # number of demand (read+write) MSHR miss cycles
system.cpu.icache.demand_mshr_miss_latency::total     22592000                       # number of demand (read+write) MSHR miss cycles
system.cpu.icache.overall_mshr_miss_latency::.cpu.inst     22592000                       # number of overall MSHR miss cycles
system.cpu.icache.overall_mshr_miss_latency::total     22592000                       # number of overall MSHR miss cycles
system.cpu.icache.demand_mshr_miss_rate::.cpu.inst     0.000133                       # mshr miss rate for demand accesses
system.cpu.icache.demand_mshr_miss_rate::total     0.000133                       # mshr miss rate for demand accesses
system.cpu.icache.overall_mshr_miss_rate::.cpu.inst     0.000133                       # mshr miss rate for overall accesses
system.cpu.icache.overall_mshr_miss_rate::total     0.000133                       # mshr miss rate for overall accesses
system.cpu.icache.demand_avg_mshr_miss_latency::.cpu.inst 55645.320197                       # average overall mshr miss latency
system.cpu.icache.demand_avg_mshr_miss_latency::total 55645.320197                       # average overall mshr miss latency
system.cpu.icache.overall_avg_mshr_miss_latency::.cpu.inst 55645.320197                       # average overall mshr miss latency
system.cpu.icache.overall_avg_mshr_miss_latency::total 55645.320197                       # average overall mshr miss latency
system.cpu.icache.replacements                    121                       # number of replacements
system.cpu.icache.ReadReq_hits::.cpu.inst      3062101                       # number of ReadReq hits
system.cpu.icache.ReadReq_hits::total         3062101                       # number of ReadReq hits
system.cpu.icache.ReadReq_misses::.cpu.inst          406                       # number of ReadReq misses
system.cpu.icache.ReadReq_misses::total           406                       # number of ReadReq misses
system.cpu.icache.ReadReq_miss_latency::.cpu.inst     23404000                       # number of ReadReq miss cycles
system.cpu.icache.ReadReq_miss_latency::total     23404000                       # number of ReadReq miss cycles
system.cpu.icache.ReadReq_accesses::.cpu.inst      3062507                       # number of ReadReq accesses(hits+misses)
system.cpu.icache.ReadReq_accesses::total      3062507                       # number of ReadReq accesses(hits+misses)
system.cpu.icache.ReadReq_miss_rate::.cpu.inst     0.000133                       # miss rate for ReadReq accesses
system.cpu.icache.ReadReq_miss_rate::total     0.000133                       # miss rate for ReadReq accesses
system.cpu.icache.ReadReq_avg_miss_latency::.cpu.inst 57645.320197                       # average ReadReq miss latency
system.cpu.icache.ReadReq_avg_miss_latency::total 57645.320197                       # average ReadReq miss latency
system.cpu.icache.ReadReq_mshr_misses::.cpu.inst          406                       # number of ReadReq MSHR misses
system.cpu.icache.ReadReq_mshr_misses::total          406                       # number of ReadReq MSHR misses
system.cpu.icache.ReadReq_mshr_miss_latency::.cpu.inst     22592000                       # number of ReadReq MSHR miss cycles
system.cpu.icache.ReadReq_mshr_miss_latency::total     22592000                       # number of ReadReq MSHR miss cycles
system.cpu.icache.ReadReq_mshr_miss_rate::.cpu.inst     0.000133                       # mshr miss rate for ReadReq accesses
system.cpu.icache.ReadReq_mshr_miss_rate::total     0.000133                       # mshr miss rate for ReadReq accesses
system.cpu.icache.ReadReq_avg_mshr_miss_latency::.cpu.inst 55645.320197                       # average ReadReq mshr miss latency
system.cpu.icache.ReadReq_avg_mshr_miss_latency::total 55645.320197                       # average ReadReq mshr miss latency
system.cpu.icache.tags.pwrStateResidencyTicks::UNDEFINED  10283072000                       # Cumulative time (in ticks) in various power states
system.cpu.icache.tags.tagsinuse           225.759892                       # Cycle average of tags in use
system.cpu.icache.tags.total_refs             3062507                       # Total number of references to valid blocks.
system.cpu.icache.tags.sampled_refs               406                       # Sample count of references to valid blocks.
system.cpu.icache.tags.avg_refs           7543.120690                       # Average number of references to valid blocks.
system.cpu.icache.tags.warmup_cycle             77000                       # Cycle when the warmup percentage was hit.
system.cpu.icache.tags.occ_blocks::.cpu.inst   225.759892                       # Average occupied blocks per requestor
system.cpu.icache.tags.occ_percent::.cpu.inst     0.440937                       # Average percentage of cache occupancy
system.cpu.icache.tags.occ_percent::total     0.440937                       # Average percentage of cache occupancy
system.cpu.icache.tags.occ_task_id_blocks::1024          285                       # Occupied blocks per task id
system.cpu.icache.tags.age_task_id_blocks_1024::0          105                       # Occupied blocks per task id
system.cpu.icache.tags.age_task_id_blocks_1024::1            4                       # Occupied blocks per task id
system.cpu.icache.tags.age_task_id_blocks_1024::3            1                       # Occupied blocks per task id
system.cpu.icache.tags.age_task_id_blocks_1024::4          175                       # Occupied blocks per task id
system.cpu.icache.tags.occ_task_id_percent::1024     0.556641                       # Percentage of cache occupancy per task id
system.cpu.icache.tags.tag_accesses           6125420                       # Number of tag accesses
system.cpu.icache.tags.data_accesses          6125420                       # Number of data accesses
system.cpu.dtb.walker.pwrStateResidencyTicks::UNDEFINED  10283072000                       # Cumulative time (in ticks) in various power states
system.cpu.dtb.stage2_mmu.stage2_tlb.walker.pwrStateResidencyTicks::UNDEFINED  10283072000                       # Cumulative time (in ticks) in various power states
system.cpu.dcache.pwrStateResidencyTicks::UNDEFINED  10283072000                       # Cumulative time (in ticks) in various power states
system.cpu.dcache.demand_hits::.cpu.data      4572293                       # number of demand (read+write) hits
system.cpu.dcache.demand_hits::total          4572293                       # number of demand (read+write) hits
system.cpu.dcache.overall_hits::.cpu.data      4572314                       # number of overall hits
system.cpu.dcache.overall_hits::total         4572314                       # number of overall hits
system.cpu.dcache.demand_misses::.cpu.data          276                       # number of demand (read+write) misses
system.cpu.dcache.demand_misses::total            276                       # number of demand (read+write) misses
system.cpu.dcache.overall_misses::.cpu.data          288                       # number of overall misses
system.cpu.dcache.overall_misses::total           288                       # number of overall misses
system.cpu.dcache.demand_miss_latency::.cpu.data     16591000                       # number of demand (read+write) miss cycles
system.cpu.dcache.demand_miss_latency::total     16591000                       # number of demand (read+write) miss cycles
system.cpu.dcache.overall_miss_latency::.cpu.data     16591000                       # number of overall miss cycles
system.cpu.dcache.overall_miss_latency::total     16591000                       # number of overall miss cycles
system.cpu.dcache.demand_accesses::.cpu.data      4572569                       # number of demand (read+write) accesses
system.cpu.dcache.demand_accesses::total      4572569                       # number of demand (read+write) accesses
system.cpu.dcache.overall_accesses::.cpu.data      4572602                       # number of overall (read+write) accesses
system.cpu.dcache.overall_accesses::total      4572602                       # number of overall (read+write) accesses
system.cpu.dcache.demand_miss_rate::.cpu.data     0.000060                       # miss rate for demand accesses
system.cpu.dcache.demand_miss_rate::total     0.000060                       # miss rate for demand accesses
system.cpu.dcache.overall_miss_rate::.cpu.data     0.000063                       # miss rate for overall accesses
system.cpu.dcache.overall_miss_rate::total     0.000063                       # miss rate for overall accesses
system.cpu.dcache.demand_avg_miss_latency::.cpu.data 60112.318841                       # average overall miss latency
system.cpu.dcache.demand_avg_miss_latency::total 60112.318841                       # average overall miss latency
system.cpu.dcache.overall_avg_miss_latency::.cpu.data 57607.638889                       # average overall miss latency
system.cpu.dcache.overall_avg_miss_latency::total 57607.638889                       # average overall miss latency
system.cpu.dcache.blocked_cycles::no_mshrs            0                       # number of cycles access was blocked
system.cpu.dcache.blocked_cycles::no_targets            0                       # number of cycles access was blocked
system.cpu.dcache.blocked::no_mshrs                 0                       # number of cycles access was blocked
system.cpu.dcache.blocked::no_targets               0                       # number of cycles access was blocked
system.cpu.dcache.avg_blocked_cycles::no_mshrs          nan                       # average number of cycles each access was blocked
system.cpu.dcache.avg_blocked_cycles::no_targets          nan                       # average number of cycles each access was blocked
system.cpu.dcache.writebacks::.writebacks            1                       # number of writebacks
system.cpu.dcache.writebacks::total                 1                       # number of writebacks
system.cpu.dcache.demand_mshr_hits::.cpu.data           56                       # number of demand (read+write) MSHR hits
system.cpu.dcache.demand_mshr_hits::total           56                       # number of demand (read+write) MSHR hits
system.cpu.dcache.overall_mshr_hits::.cpu.data           56                       # number of overall MSHR hits
system.cpu.dcache.overall_mshr_hits::total           56                       # number of overall MSHR hits
system.cpu.dcache.demand_mshr_misses::.cpu.data          220                       # number of demand (read+write) MSHR misses
system.cpu.dcache.demand_mshr_misses::total          220                       # number of demand (read+write) MSHR misses
system.cpu.dcache.overall_mshr_misses::.cpu.data          229                       # number of overall MSHR misses
system.cpu.dcache.overall_mshr_misses::total          229                       # number of overall MSHR misses
system.cpu.dcache.demand_mshr_miss_latency::.cpu.data     12859000                       # number of demand (read+write) MSHR miss cycles
system.cpu.dcache.demand_mshr_miss_latency::total     12859000                       # number of demand (read+write) MSHR miss cycles
system.cpu.dcache.overall_mshr_miss_latency::.cpu.data     13570000                       # number of overall MSHR miss cycles
system.cpu.dcache.overall_mshr_miss_latency::total     13570000                       # number of overall MSHR miss cycles
system.cpu.dcache.demand_mshr_miss_rate::.cpu.data     0.000048                       # mshr miss rate for demand accesses
system.cpu.dcache.demand_mshr_miss_rate::total     0.000048                       # mshr miss rate for demand accesses
system.cpu.dcache.overall_mshr_miss_rate::.cpu.data     0.000050                       # mshr miss rate for overall accesses
system.cpu.dcache.overall_mshr_miss_rate::total     0.000050                       # mshr miss rate for overall accesses
system.cpu.dcache.demand_avg_mshr_miss_latency::.cpu.data        58450                       # average overall mshr miss latency
system.cpu.dcache.demand_avg_mshr_miss_latency::total        58450                       # average overall mshr miss latency
system.cpu.dcache.overall_avg_mshr_miss_latency::.cpu.data 59257.641921                       # average overall mshr miss latency
system.cpu.dcache.overall_avg_mshr_miss_latency::total 59257.641921                       # average overall mshr miss latency
system.cpu.dcache.replacements                      4                       # number of replacements
system.cpu.dcache.ReadReq_hits::.cpu.data      4043146                       # number of ReadReq hits
system.cpu.dcache.ReadReq_hits::total         4043146                       # number of ReadReq hits
system.cpu.dcache.ReadReq_misses::.cpu.data          104                       # number of ReadReq misses
system.cpu.dcache.ReadReq_misses::total           104                       # number of ReadReq misses
system.cpu.dcache.ReadReq_miss_latency::.cpu.data      6576000                       # number of ReadReq miss cycles
system.cpu.dcache.ReadReq_miss_latency::total      6576000                       # number of ReadReq miss cycles
system.cpu.dcache.ReadReq_accesses::.cpu.data      4043250                       # number of ReadReq accesses(hits+misses)
system.cpu.dcache.ReadReq_accesses::total      4043250                       # number of ReadReq accesses(hits+misses)
system.cpu.dcache.ReadReq_miss_rate::.cpu.data     0.000026                       # miss rate for ReadReq accesses
system.cpu.dcache.ReadReq_miss_rate::total     0.000026                       # miss rate for ReadReq accesses
system.cpu.dcache.ReadReq_avg_miss_latency::.cpu.data 63230.769231                       # average ReadReq miss latency
system.cpu.dcache.ReadReq_avg_miss_latency::total 63230.769231                       # average ReadReq miss latency
system.cpu.dcache.ReadReq_mshr_hits::.cpu.data            8                       # number of ReadReq MSHR hits
system.cpu.dcache.ReadReq_mshr_hits::total            8                       # number of ReadReq MSHR hits
system.cpu.dcache.ReadReq_mshr_misses::.cpu.data           96                       # number of ReadReq MSHR misses
system.cpu.dcache.ReadReq_mshr_misses::total           96                       # number of ReadReq MSHR misses
system.cpu.dcache.ReadReq_mshr_miss_latency::.cpu.data      5805000                       # number of ReadReq MSHR miss cycles
system.cpu.dcache.ReadReq_mshr_miss_latency::total      5805000                       # number of ReadReq MSHR miss cycles
system.cpu.dcache.ReadReq_mshr_miss_rate::.cpu.data     0.000024                       # mshr miss rate for ReadReq accesses
system.cpu.dcache.ReadReq_mshr_miss_rate::total     0.000024                       # mshr miss rate for ReadReq accesses
system.cpu.dcache.ReadReq_avg_mshr_miss_latency::.cpu.data 60468.750000                       # average ReadReq mshr miss latency
system.cpu.dcache.ReadReq_avg_mshr_miss_latency::total 60468.750000                       # average ReadReq mshr miss latency
system.cpu.dcache.WriteReq_hits::.cpu.data       529147                       # number of WriteReq hits
system.cpu.dcache.WriteReq_hits::total         529147                       # number of WriteReq hits
system.cpu.dcache.WriteReq_misses::.cpu.data          172                       # number of WriteReq misses
system.cpu.dcache.WriteReq_misses::total          172                       # number of WriteReq misses
system.cpu.dcache.WriteReq_miss_latency::.cpu.data     10015000                       # number of WriteReq miss cycles
system.cpu.dcache.WriteReq_miss_latency::total     10015000                       # number of WriteReq miss cycles
system.cpu.dcache.WriteReq_accesses::.cpu.data       529319                       # number of WriteReq accesses(hits+misses)
system.cpu.dcache.WriteReq_accesses::total       529319                       # number of WriteReq accesses(hits+misses)
system.cpu.dcache.WriteReq_miss_rate::.cpu.data     0.000325                       # miss rate for WriteReq accesses
system.cpu.dcache.WriteReq_miss_rate::total     0.000325                       # miss rate for WriteReq accesses
system.cpu.dcache.WriteReq_avg_miss_latency::.cpu.data 58226.744186                       # average WriteReq miss latency
system.cpu.dcache.WriteReq_avg_miss_latency::total 58226.744186                       # average WriteReq miss latency
system.cpu.dcache.WriteReq_mshr_hits::.cpu.data           48                       # number of WriteReq MSHR hits
system.cpu.dcache.WriteReq_mshr_hits::total           48                       # number of WriteReq MSHR hits
system.cpu.dcache.WriteReq_mshr_misses::.cpu.data          124                       # number of WriteReq MSHR misses
system.cpu.dcache.WriteReq_mshr_misses::total          124                       # number of WriteReq MSHR misses
system.cpu.dcache.WriteReq_mshr_miss_latency::.cpu.data      7054000                       # number of WriteReq MSHR miss cycles
system.cpu.dcache.WriteReq_mshr_miss_latency::total      7054000                       # number of WriteReq MSHR miss cycles
system.cpu.dcache.WriteReq_mshr_miss_rate::.cpu.data     0.000234                       # mshr miss rate for WriteReq accesses
system.cpu.dcache.WriteReq_mshr_miss_rate::total     0.000234                       # mshr miss rate for WriteReq accesses
system.cpu.dcache.WriteReq_avg_mshr_miss_latency::.cpu.data 56887.096774                       # average WriteReq mshr miss latency
system.cpu.dcache.WriteReq_avg_mshr_miss_latency::total 56887.096774                       # average WriteReq mshr miss latency
system.cpu.dcache.SoftPFReq_hits::.cpu.data           21                       # number of SoftPFReq hits
system.cpu.dcache.SoftPFReq_hits::total            21                       # number of SoftPFReq hits
system.cpu.dcache.SoftPFReq_misses::.cpu.data           12                       # number of SoftPFReq misses
system.cpu.dcache.SoftPFReq_misses::total           12                       # number of SoftPFReq misses
system.cpu.dcache.SoftPFReq_accesses::.cpu.data           33                       # number of SoftPFReq accesses(hits+misses)
system.cpu.dcache.SoftPFReq_accesses::total           33                       # number of SoftPFReq accesses(hits+misses)
system.cpu.dcache.SoftPFReq_miss_rate::.cpu.data     0.363636                       # miss rate for SoftPFReq accesses
system.cpu.dcache.SoftPFReq_miss_rate::total     0.363636                       # miss rate for SoftPFReq accesses
system.cpu.dcache.SoftPFReq_mshr_misses::.cpu.data            9                       # number of SoftPFReq MSHR misses
system.cpu.dcache.SoftPFReq_mshr_misses::total            9                       # number of SoftPFReq MSHR misses
system.cpu.dcache.SoftPFReq_mshr_miss_latency::.cpu.data       711000                       # number of SoftPFReq MSHR miss cycles
system.cpu.dcache.SoftPFReq_mshr_miss_latency::total       711000                       # number of SoftPFReq MSHR miss cycles
system.cpu.dcache.SoftPFReq_mshr_miss_rate::.cpu.data     0.272727                       # mshr miss rate for SoftPFReq accesses
system.cpu.dcache.SoftPFReq_mshr_miss_rate::total     0.272727                       # mshr miss rate for SoftPFReq accesses
system.cpu.dcache.SoftPFReq_avg_mshr_miss_latency::.cpu.data        79000                       # average SoftPFReq mshr miss latency
system.cpu.dcache.SoftPFReq_avg_mshr_miss_latency::total        79000                       # average SoftPFReq mshr miss latency
system.cpu.dcache.LoadLockedReq_hits::.cpu.data         2019                       # number of LoadLockedReq hits
system.cpu.dcache.LoadLockedReq_hits::total         2019                       # number of LoadLockedReq hits
system.cpu.dcache.LoadLockedReq_misses::.cpu.data            1                       # number of LoadLockedReq misses
system.cpu.dcache.LoadLockedReq_misses::total            1                       # number of LoadLockedReq misses
system.cpu.dcache.LoadLockedReq_miss_latency::.cpu.data        53000                       # number of LoadLockedReq miss cycles
system.cpu.dcache.LoadLockedReq_miss_latency::total        53000                       # number of LoadLockedReq miss cycles
system.cpu.dcache.LoadLockedReq_accesses::.cpu.data         2020                       # number of LoadLockedReq accesses(hits+misses)
system.cpu.dcache.LoadLockedReq_accesses::total         2020                       # number of LoadLockedReq accesses(hits+misses)
system.cpu.dcache.LoadLockedReq_miss_rate::.cpu.data     0.000495                       # miss rate for LoadLockedReq accesses
system.cpu.dcache.LoadLockedReq_miss_rate::total     0.000495                       # miss rate for LoadLockedReq accesses
system.cpu.dcache.LoadLockedReq_avg_miss_latency::.cpu.data        53000                       # average LoadLockedReq miss latency
system.cpu.dcache.LoadLockedReq_avg_miss_latency::total        53000                       # average LoadLockedReq miss latency
system.cpu.dcache.LoadLockedReq_mshr_misses::.cpu.data            1                       # number of LoadLockedReq MSHR misses
system.cpu.dcache.LoadLockedReq_mshr_misses::total            1                       # number of LoadLockedReq MSHR misses
system.cpu.dcache.LoadLockedReq_mshr_miss_latency::.cpu.data        51000                       # number of LoadLockedReq MSHR miss cycles
system.cpu.dcache.LoadLockedReq_mshr_miss_latency::total        51000                       # number of LoadLockedReq MSHR miss cycles
system.cpu.dcache.LoadLockedReq_mshr_miss_rate::.cpu.data     0.000495                       # mshr miss rate for LoadLockedReq accesses
system.cpu.dcache.LoadLockedReq_mshr_miss_rate::total     0.000495                       # mshr miss rate for LoadLockedReq accesses
system.cpu.dcache.LoadLockedReq_avg_mshr_miss_latency::.cpu.data        51000                       # average LoadLockedReq mshr miss latency
system.cpu.dcache.LoadLockedReq_avg_mshr_miss_latency::total        51000                       # average LoadLockedReq mshr miss latency
system.cpu.dcache.StoreCondReq_hits::.cpu.data         2020                       # number of StoreCondReq hits
system.cpu.dcache.StoreCondReq_hits::total         2020                       # number of StoreCondReq hits
system.cpu.dcache.StoreCondReq_accesses::.cpu.data         2020                       # number of StoreCondReq accesses(hits+misses)
system.cpu.dcache.StoreCondReq_accesses::total         2020                       # number of StoreCondReq accesses(hits+misses)
system.cpu.dcache.tags.pwrStateResidencyTicks::UNDEFINED  10283072000                       # Cumulative time (in ticks) in various power states
system.cpu.dcache.tags.tagsinuse           196.421727                       # Cycle average of tags in use
system.cpu.dcache.tags.total_refs             4576583                       # Total number of references to valid blocks.
system.cpu.dcache.tags.sampled_refs               230                       # Sample count of references to valid blocks.
system.cpu.dcache.tags.avg_refs          19898.186957                       # Average number of references to valid blocks.
system.cpu.dcache.tags.warmup_cycle            150000                       # Cycle when the warmup percentage was hit.
system.cpu.dcache.tags.occ_blocks::.cpu.data   196.421727                       # Average occupied blocks per requestor
system.cpu.dcache.tags.occ_percent::.cpu.data     0.191818                       # Average percentage of cache occupancy
system.cpu.dcache.tags.occ_percent::total     0.191818                       # Average percentage of cache occupancy
system.cpu.dcache.tags.occ_task_id_blocks::1024          226                       # Occupied blocks per task id
system.cpu.dcache.tags.age_task_id_blocks_1024::0           30                       # Occupied blocks per task id
system.cpu.dcache.tags.age_task_id_blocks_1024::4          196                       # Occupied blocks per task id
system.cpu.dcache.tags.occ_task_id_percent::1024     0.220703                       # Percentage of cache occupancy per task id
system.cpu.dcache.tags.tag_accesses           9153514                       # Number of tag accesses
system.cpu.dcache.tags.data_accesses          9153514                       # Number of data accesses
system.cpu.itb.walker.pwrStateResidencyTicks::UNDEFINED  10283072000                       # Cumulative time (in ticks) in various power states
system.cpu.itb.stage2_mmu.stage2_tlb.walker.pwrStateResidencyTicks::UNDEFINED  10283072000                       # Cumulative time (in ticks) in various power states

---------- End Simulation Statistics   ----------
