
---------- Begin Simulation Statistics ----------
final_tick                                14774956000                       # Number of ticks from beginning of simulation (restored from checkpoints and never reset)
host_inst_rate                                 428692                       # Simulator instruction rate (inst/s)
host_mem_usage                                 674148                       # Number of bytes of host memory used
host_op_rate                                   429476                       # Simulator op (including micro ops) rate (op/s)
host_seconds                                    22.53                       # Real time elapsed on the host
host_tick_rate                              655799002                       # Simulator tick rate (ticks/s)
sim_freq                                 1000000000000                       # Frequency of simulated ticks
sim_insts                                     9658140                       # Number of instructions simulated
sim_ops                                       9675935                       # Number of ops (including micro ops) simulated
sim_seconds                                  0.014775                       # Number of seconds simulated
sim_ticks                                 14774956000                       # Number of ticks simulated
system.cpu.Branches                           1022619                       # Number of branches fetched
system.cpu.committedInsts                     9658140                       # Number of instructions committed
system.cpu.committedOps                       9675935                       # Number of ops (including micro ops) committed
system.cpu.dtb.accesses                             0                       # DTB accesses
system.cpu.dtb.align_faults                         0                       # Number of TLB faults due to alignment restrictions
system.cpu.dtb.domain_faults                        0                       # Number of TLB faults due to domain restrictions
system.cpu.dtb.flush_entries                        0                       # Number of entries that have been flushed from TLB
system.cpu.dtb.flush_tlb                            0                       # Number of times complete TLB was flushed
system.cpu.dtb.flush_tlb_asid                       0                       # Number of times TLB was flushed by ASID
system.cpu.dtb.flush_tlb_mva                        0                       # Number of times TLB was flushed by MVA
system.cpu.dtb.flush_tlb_mva_asid                   0                       # Number of times TLB was flushed by MVA & ASID
system.cpu.dtb.hits                                 0                       # DTB hits
system.cpu.dtb.inst_accesses                        0                       # ITB inst accesses
system.cpu.dtb.inst_hits                            0                       # ITB inst hits
system.cpu.dtb.inst_misses                          0                       # ITB inst misses
system.cpu.dtb.misses                               0                       # DTB misses
system.cpu.dtb.perms_faults                         0                       # Number of TLB faults due to permissions restrictions
system.cpu.dtb.prefetch_faults                      0                       # Number of TLB faults due to prefetch
system.cpu.dtb.read_accesses                        0                       # DTB read accesses
system.cpu.dtb.read_hits                            0                       # DTB read hits
system.cpu.dtb.read_misses                          0                       # DTB read misses
system.cpu.dtb.stage2_mmu.stage2_tlb.accesses            0                       # DTB accesses
system.cpu.dtb.stage2_mmu.stage2_tlb.align_faults            0                       # Number of TLB faults due to alignment restrictions
system.cpu.dtb.stage2_mmu.stage2_tlb.domain_faults            0                       # Number of TLB faults due to domain restrictions
system.cpu.dtb.stage2_mmu.stage2_tlb.flush_entries            0                       # Number of entries that have been flushed from TLB
system.cpu.dtb.stage2_mmu.stage2_tlb.flush_tlb            0                       # Number of times complete TLB was flushed
system.cpu.dtb.stage2_mmu.stage2_tlb.flush_tlb_asid            0                       # Number of times TLB was flushed by ASID
system.cpu.dtb.stage2_mmu.stage2_tlb.flush_tlb_mva            0                       # Number of times TLB was flushed by MVA
system.cpu.dtb.stage2_mmu.stage2_tlb.flush_tlb_mva_asid            0                       # Number of times TLB was flushed by MVA & ASID
system.cpu.dtb.stage2_mmu.stage2_tlb.hits            0                       # DTB hits
system.cpu.dtb.stage2_mmu.stage2_tlb.inst_accesses            0                       # ITB inst accesses
system.cpu.dtb.stage2_mmu.stage2_tlb.inst_hits            0                       # ITB inst hits
system.cpu.dtb.stage2_mmu.stage2_tlb.inst_misses            0                       # ITB inst misses
system.cpu.dtb.stage2_mmu.stage2_tlb.misses            0                       # DTB misses
system.cpu.dtb.stage2_mmu.stage2_tlb.perms_faults            0                       # Number of TLB faults due to permissions restrictions
system.cpu.dtb.stage2_mmu.stage2_tlb.prefetch_faults            0                       # Number of TLB faults due to prefetch
system.cpu.dtb.stage2_mmu.stage2_tlb.read_accesses            0                       # DTB read accesses
system.cpu.dtb.stage2_mmu.stage2_tlb.read_hits            0                       # DTB read hits
system.cpu.dtb.stage2_mmu.stage2_tlb.read_misses            0                       # DTB read misses
system.cpu.dtb.stage2_mmu.stage2_tlb.walker.walkRequestOrigin_Requested::Data            0                       # Table walker requests started/completed, data/inst
system.cpu.dtb.stage2_mmu.stage2_tlb.walker.walkRequestOrigin_Requested::Inst            0                       # Table walker requests started/completed, data/inst
system.cpu.dtb.stage2_mmu.stage2_tlb.walker.walkRequestOrigin_Requested::total            0                       # Table walker requests started/completed, data/inst
system.cpu.dtb.stage2_mmu.stage2_tlb.walker.walkRequestOrigin_Completed::Data            0                       # Table walker requests started/completed, data/inst
system.cpu.dtb.stage2_mmu.stage2_tlb.walker.walkRequestOrigin_Completed::Inst            0                       # Table walker requests started/completed, data/inst
system.cpu.dtb.stage2_mmu.stage2_tlb.walker.walkRequestOrigin_Completed::total            0                       # Table walker requests started/completed, data/inst
system.cpu.dtb.stage2_mmu.stage2_tlb.walker.walkRequestOrigin::total            0                       # Table walker requests started/completed, data/inst
system.cpu.dtb.stage2_mmu.stage2_tlb.walker.walks            0                       # Table walker walks requested
system.cpu.dtb.stage2_mmu.stage2_tlb.write_accesses            0                       # DTB write accesses
system.cpu.dtb.stage2_mmu.stage2_tlb.write_hits            0                       # DTB write hits
system.cpu.dtb.stage2_mmu.stage2_tlb.write_misses            0                       # DTB write misses
system.cpu.dtb.walker.walkRequestOrigin_Requested::Data            0                       # Table walker requests started/completed, data/inst
system.cpu.dtb.walker.walkRequestOrigin_Requested::Inst            0                       # Table walker requests started/completed, data/inst
system.cpu.dtb.walker.walkRequestOrigin_Requested::total            0                       # Table walker requests started/completed, data/inst
system.cpu.dtb.walker.walkRequestOrigin_Completed::Data            0                       # Table walker requests started/completed, data/inst
system.cpu.dtb.walker.walkRequestOrigin_Completed::Inst            0                       # Table walker requests started/completed, data/inst
system.cpu.dtb.walker.walkRequestOrigin_Completed::total            0                       # Table walker requests started/completed, data/inst
system.cpu.dtb.walker.walkRequestOrigin::total            0                       # Table walker requests started/completed, data/inst
system.cpu.dtb.walker.walks                         0                       # Table walker walks requested
system.cpu.dtb.write_accesses                       0                       # DTB write accesses
system.cpu.dtb.write_hits                           0                       # DTB write hits
system.cpu.dtb.write_misses                         0                       # DTB write misses
system.cpu.idle_fraction                     0.000000                       # Percentage of idle cycles
system.cpu.itb.accesses                             0                       # DTB accesses
system.cpu.itb.align_faults                         0                       # Number of TLB faults due to alignment restrictions
system.cpu.itb.domain_faults                        0                       # Number of TLB faults due to domain restrictions
system.cpu.itb.flush_entries                        0                       # Number of entries that have been flushed from TLB
system.cpu.itb.flush_tlb                            0                       # Number of times complete TLB was flushed
system.cpu.itb.flush_tlb_asid                       0                       # Number of times TLB was flushed by ASID
system.cpu.itb.flush_tlb_mva                        0                       # Number of times TLB was flushed by MVA
system.cpu.itb.flush_tlb_mva_asid                   0                       # Number of times TLB was flushed by MVA & ASID
system.cpu.itb.hits                                 0                       # DTB hits
system.cpu.itb.inst_accesses                        0                       # ITB inst accesses
system.cpu.itb.inst_hits                            0                       # ITB inst hits
system.cpu.itb.inst_misses                          0                       # ITB inst misses
system.cpu.itb.misses                               0                       # DTB misses
system.cpu.itb.perms_faults                         0                       # Number of TLB faults due to permissions restrictions
system.cpu.itb.prefetch_faults                      0                       # Number of TLB faults due to prefetch
system.cpu.itb.read_accesses                        0                       # DTB read accesses
system.cpu.itb.read_hits                            0                       # DTB read hits
system.cpu.itb.read_misses                          0                       # DTB read misses
system.cpu.itb.stage2_mmu.stage2_tlb.accesses            0                       # DTB accesses
system.cpu.itb.stage2_mmu.stage2_tlb.align_faults            0                       # Number of TLB faults due to alignment restrictions
system.cpu.itb.stage2_mmu.stage2_tlb.domain_faults            0                       # Number of TLB faults due to domain restrictions
system.cpu.itb.stage2_mmu.stage2_tlb.flush_entries            0                       # Number of entries that have been flushed from TLB
system.cpu.itb.stage2_mmu.stage2_tlb.flush_tlb            0                       # Number of times complete TLB was flushed
system.cpu.itb.stage2_mmu.stage2_tlb.flush_tlb_asid            0                       # Number of times TLB was flushed by ASID
system.cpu.itb.stage2_mmu.stage2_tlb.flush_tlb_mva            0                       # Number of times TLB was flushed by MVA
system.cpu.itb.stage2_mmu.stage2_tlb.flush_tlb_mva_asid            0                       # Number of times TLB was flushed by MVA & ASID
system.cpu.itb.stage2_mmu.stage2_tlb.hits            0                       # DTB hits
system.cpu.itb.stage2_mmu.stage2_tlb.inst_accesses            0                       # ITB inst accesses
system.cpu.itb.stage2_mmu.stage2_tlb.inst_hits            0                       # ITB inst hits
system.cpu.itb.stage2_mmu.stage2_tlb.inst_misses            0                       # ITB inst misses
system.cpu.itb.stage2_mmu.stage2_tlb.misses            0                       # DTB misses
system.cpu.itb.stage2_mmu.stage2_tlb.perms_faults            0                       # Number of TLB faults due to permissions restrictions
system.cpu.itb.stage2_mmu.stage2_tlb.prefetch_faults            0                       # Number of TLB faults due to prefetch
system.cpu.itb.stage2_mmu.stage2_tlb.read_accesses            0                       # DTB read accesses
system.cpu.itb.stage2_mmu.stage2_tlb.read_hits            0                       # DTB read hits
system.cpu.itb.stage2_mmu.stage2_tlb.read_misses            0                       # DTB read misses
system.cpu.itb.stage2_mmu.stage2_tlb.walker.walkRequestOrigin_Requested::Data            0                       # Table walker requests started/completed, data/inst
system.cpu.itb.stage2_mmu.stage2_tlb.walker.walkRequestOrigin_Requested::Inst            0                       # Table walker requests started/completed, data/inst
system.cpu.itb.stage2_mmu.stage2_tlb.walker.walkRequestOrigin_Requested::total            0                       # Table walker requests started/completed, data/inst
system.cpu.itb.stage2_mmu.stage2_tlb.walker.walkRequestOrigin_Completed::Data            0                       # Table walker requests started/completed, data/inst
system.cpu.itb.stage2_mmu.stage2_tlb.walker.walkRequestOrigin_Completed::Inst            0                       # Table walker requests started/completed, data/inst
system.cpu.itb.stage2_mmu.stage2_tlb.walker.walkRequestOrigin_Completed::total            0                       # Table walker requests started/completed, data/inst
system.cpu.itb.stage2_mmu.stage2_tlb.walker.walkRequestOrigin::total            0                       # Table walker requests started/completed, data/inst
system.cpu.itb.stage2_mmu.stage2_tlb.walker.walks            0                       # Table walker walks requested
system.cpu.itb.stage2_mmu.stage2_tlb.write_accesses            0                       # DTB write accesses
system.cpu.itb.stage2_mmu.stage2_tlb.write_hits            0                       # DTB write hits
system.cpu.itb.stage2_mmu.stage2_tlb.write_misses            0                       # DTB write misses
system.cpu.itb.walker.walkRequestOrigin_Requested::Data            0                       # Table walker requests started/completed, data/inst
system.cpu.itb.walker.walkRequestOrigin_Requested::Inst            0                       # Table walker requests started/completed, data/inst
system.cpu.itb.walker.walkRequestOrigin_Requested::total            0                       # Table walker requests started/completed, data/inst
system.cpu.itb.walker.walkRequestOrigin_Completed::Data            0                       # Table walker requests started/completed, data/inst
system.cpu.itb.walker.walkRequestOrigin_Completed::Inst            0                       # Table walker requests started/completed, data/inst
system.cpu.itb.walker.walkRequestOrigin_Completed::total            0                       # Table walker requests started/completed, data/inst
system.cpu.itb.walker.walkRequestOrigin::total            0                       # Table walker requests started/completed, data/inst
system.cpu.itb.walker.walks                         0                       # Table walker walks requested
system.cpu.itb.write_accesses                       0                       # DTB write accesses
system.cpu.itb.write_hits                           0                       # DTB write hits
system.cpu.itb.write_misses                         0                       # DTB write misses
system.cpu.not_idle_fraction                 1.000000                       # Percentage of non-idle cycles
system.cpu.numCycles                         29549912                       # number of cpu cycles simulated
system.cpu.numWorkItemsCompleted                    0                       # number of work items this cpu completed
system.cpu.numWorkItemsStarted                      0                       # number of work items this cpu started
system.cpu.num_busy_cycles               29549911.998000                       # Number of busy cycles
system.cpu.num_cc_register_reads             42647157                       # number of times the CC registers were read
system.cpu.num_cc_register_writes             6583690                       # number of times the CC registers were written
system.cpu.num_conditional_control_insts      1013511                       # number of instructions that are conditional controls
system.cpu.num_fp_alu_accesses                      0                       # Number of float alu accesses
system.cpu.num_fp_insts                             0                       # number of float instructions
system.cpu.num_fp_register_reads                    0                       # number of times the floating registers were read
system.cpu.num_fp_register_writes                   0                       # number of times the floating registers were written
system.cpu.num_func_calls                        6950                       # number of times a function call or return occured
system.cpu.num_idle_cycles                   0.002000                       # Number of idle cycles
system.cpu.num_int_alu_accesses               8656132                       # Number of integer alu accesses
system.cpu.num_int_insts                      8656132                       # number of integer instructions
system.cpu.num_int_register_reads            16259818                       # number of times the integer registers were read
system.cpu.num_int_register_writes            7119757                       # number of times the integer registers were written
system.cpu.num_load_insts                     4540166                       # Number of load instructions
system.cpu.num_mem_refs                       5071533                       # number of memory refs
system.cpu.num_store_insts                     531367                       # Number of store instructions
system.cpu.num_vec_alu_accesses                     0                       # Number of vector alu accesses
system.cpu.num_vec_insts                            0                       # number of vector instructions
system.cpu.num_vec_register_reads                  40                       # number of times the vector registers were read
system.cpu.num_vec_register_writes                 13                       # number of times the vector registers were written
system.cpu.op_class::No_OpClass                     0      0.00%      0.00% # Class of executed instruction
system.cpu.op_class::IntAlu                   4602315     47.56%     47.56% # Class of executed instruction
system.cpu.op_class::IntMult                     2166      0.02%     47.59% # Class of executed instruction
system.cpu.op_class::IntDiv                         0      0.00%     47.59% # Class of executed instruction
system.cpu.op_class::FloatAdd                       0      0.00%     47.59% # Class of executed instruction
system.cpu.op_class::FloatCmp                       0      0.00%     47.59% # Class of executed instruction
system.cpu.op_class::FloatCvt                       0      0.00%     47.59% # Class of executed instruction
system.cpu.op_class::FloatMult                      0      0.00%     47.59% # Class of executed instruction
system.cpu.op_class::FloatMultAcc                   0      0.00%     47.59% # Class of executed instruction
system.cpu.op_class::FloatDiv                       0      0.00%     47.59% # Class of executed instruction
system.cpu.op_class::FloatMisc                      0      0.00%     47.59% # Class of executed instruction
system.cpu.op_class::FloatSqrt                      0      0.00%     47.59% # Class of executed instruction
system.cpu.op_class::SimdAdd                        0      0.00%     47.59% # Class of executed instruction
system.cpu.op_class::SimdAddAcc                     0      0.00%     47.59% # Class of executed instruction
system.cpu.op_class::SimdAlu                        0      0.00%     47.59% # Class of executed instruction
system.cpu.op_class::SimdCmp                        0      0.00%     47.59% # Class of executed instruction
system.cpu.op_class::SimdCvt                        0      0.00%     47.59% # Class of executed instruction
system.cpu.op_class::SimdMisc                       0      0.00%     47.59% # Class of executed instruction
system.cpu.op_class::SimdMult                       0      0.00%     47.59% # Class of executed instruction
system.cpu.op_class::SimdMultAcc                    0      0.00%     47.59% # Class of executed instruction
system.cpu.op_class::SimdShift                      0      0.00%     47.59% # Class of executed instruction
system.cpu.op_class::SimdShiftAcc                   0      0.00%     47.59% # Class of executed instruction
system.cpu.op_class::SimdDiv                        0      0.00%     47.59% # Class of executed instruction
system.cpu.op_class::SimdSqrt                       0      0.00%     47.59% # Class of executed instruction
system.cpu.op_class::SimdFloatAdd                   0      0.00%     47.59% # Class of executed instruction
system.cpu.op_class::SimdFloatAlu                   0      0.00%     47.59% # Class of executed instruction
system.cpu.op_class::SimdFloatCmp                   0      0.00%     47.59% # Class of executed instruction
system.cpu.op_class::SimdFloatCvt                   0      0.00%     47.59% # Class of executed instruction
system.cpu.op_class::SimdFloatDiv                   0      0.00%     47.59% # Class of executed instruction
system.cpu.op_class::SimdFloatMisc                 21      0.00%     47.59% # Class of executed instruction
system.cpu.op_class::SimdFloatMult                  0      0.00%     47.59% # Class of executed instruction
system.cpu.op_class::SimdFloatMultAcc               0      0.00%     47.59% # Class of executed instruction
system.cpu.op_class::SimdFloatSqrt                  0      0.00%     47.59% # Class of executed instruction
system.cpu.op_class::SimdReduceAdd                  0      0.00%     47.59% # Class of executed instruction
system.cpu.op_class::SimdReduceAlu                  0      0.00%     47.59% # Class of executed instruction
system.cpu.op_class::SimdReduceCmp                  0      0.00%     47.59% # Class of executed instruction
system.cpu.op_class::SimdFloatReduceAdd             0      0.00%     47.59% # Class of executed instruction
system.cpu.op_class::SimdFloatReduceCmp             0      0.00%     47.59% # Class of executed instruction
system.cpu.op_class::SimdAes                        0      0.00%     47.59% # Class of executed instruction
system.cpu.op_class::SimdAesMix                     0      0.00%     47.59% # Class of executed instruction
system.cpu.op_class::SimdSha1Hash                   0      0.00%     47.59% # Class of executed instruction
system.cpu.op_class::SimdSha1Hash2                  0      0.00%     47.59% # Class of executed instruction
system.cpu.op_class::SimdSha256Hash                 0      0.00%     47.59% # Class of executed instruction
system.cpu.op_class::SimdSha256Hash2                0      0.00%     47.59% # Class of executed instruction
system.cpu.op_class::SimdShaSigma2                  0      0.00%     47.59% # Class of executed instruction
system.cpu.op_class::SimdShaSigma3                  0      0.00%     47.59% # Class of executed instruction
system.cpu.op_class::SimdPredAlu                    0      0.00%     47.59% # Class of executed instruction
system.cpu.op_class::MemRead                  4540166     46.92%     94.51% # Class of executed instruction
system.cpu.op_class::MemWrite                  531367      5.49%    100.00% # Class of executed instruction
system.cpu.op_class::FloatMemRead                   0      0.00%    100.00% # Class of executed instruction
system.cpu.op_class::FloatMemWrite                  0      0.00%    100.00% # Class of executed instruction
system.cpu.op_class::IprAccess                      0      0.00%    100.00% # Class of executed instruction
system.cpu.op_class::InstPrefetch                   0      0.00%    100.00% # Class of executed instruction
system.cpu.op_class::total                    9676035                       # Class of executed instruction
system.cpu.workload.numSyscalls                    12                       # Number of system calls
system.membus.snoop_filter.hit_multi_requests            3                       # Number of requests hitting in the snoop filter with multiple (>1) holders of the requested data.
system.membus.snoop_filter.hit_multi_snoops            0                       # Number of snoops hitting in the snoop filter with multiple (>1) holders of the requested data.
system.membus.snoop_filter.hit_single_requests           70                       # Number of requests hitting in the snoop filter with a single holder of the requested data.
system.membus.snoop_filter.hit_single_snoops            0                       # Number of snoops hitting in the snoop filter with a single holder of the requested data.
system.membus.snoop_filter.tot_requests           564                       # Total number of requests made to the snoop filter.
system.membus.snoop_filter.tot_snoops               0                       # Total number of snoops made to the snoop filter.
system.membus.pwrStateResidencyTicks::UNDEFINED  14774956000                       # Cumulative time (in ticks) in various power states
system.membus.trans_dist::ReadResp                383                       # Transaction distribution
system.membus.trans_dist::WritebackDirty            1                       # Transaction distribution
system.membus.trans_dist::WritebackClean           54                       # Transaction distribution
system.membus.trans_dist::CleanEvict                2                       # Transaction distribution
system.membus.trans_dist::ReadExReq               124                       # Transaction distribution
system.membus.trans_dist::ReadExResp              124                       # Transaction distribution
system.membus.trans_dist::ReadCleanReq            286                       # Transaction distribution
system.membus.trans_dist::ReadSharedReq            97                       # Transaction distribution
system.membus.pkt_count_system.cpu.icache.mem_side::system.mem_ctrls.port          626                       # Packet count per connected master and slave (bytes)
system.membus.pkt_count_system.cpu.dcache.mem_side::system.mem_ctrls.port          445                       # Packet count per connected master and slave (bytes)
system.membus.pkt_count::total                   1071                       # Packet count per connected master and slave (bytes)
system.membus.pkt_size_system.cpu.icache.mem_side::system.mem_ctrls.port        21760                       # Cumulative packet size per connected master and slave (bytes)
system.membus.pkt_size_system.cpu.dcache.mem_side::system.mem_ctrls.port        14208                       # Cumulative packet size per connected master and slave (bytes)
system.membus.pkt_size::total                   35968                       # Cumulative packet size per connected master and slave (bytes)
system.membus.snoops                                0                       # Total snoops (count)
system.membus.snoopTraffic                          0                       # Total snoop traffic (bytes)
system.membus.snoop_fanout::samples               507                       # Request fanout histogram
system.membus.snoop_fanout::mean             0.031558                       # Request fanout histogram
system.membus.snoop_fanout::stdev            0.174993                       # Request fanout histogram
system.membus.snoop_fanout::underflows              0      0.00%      0.00% # Request fanout histogram
system.membus.snoop_fanout::0                     491     96.84%     96.84% # Request fanout histogram
system.membus.snoop_fanout::1                      16      3.16%    100.00% # Request fanout histogram
system.membus.snoop_fanout::2                       0      0.00%    100.00% # Request fanout histogram
system.membus.snoop_fanout::overflows               0      0.00%    100.00% # Request fanout histogram
system.membus.snoop_fanout::min_value               0                       # Request fanout histogram
system.membus.snoop_fanout::max_value               1                       # Request fanout histogram
system.membus.snoop_fanout::total                 507                       # Request fanout histogram
system.membus.reqLayer0.occupancy              787000                       # Layer occupancy (ticks)
system.membus.reqLayer0.utilization               0.0                       # Layer utilization (%)
system.membus.respLayer1.occupancy            1521750                       # Layer occupancy (ticks)
system.membus.respLayer1.utilization              0.0                       # Layer utilization (%)
system.membus.respLayer2.occupancy            1177750                       # Layer occupancy (ticks)
system.membus.respLayer2.utilization              0.0                       # Layer utilization (%)
system.voltage_domain.voltage                       1                       # Voltage in Volts
system.clk_domain.clock                          1000                       # Clock period in ticks
system.cpu_voltage_domain.voltage                   1                       # Voltage in Volts
system.mem_ctrls.pwrStateResidencyTicks::UNDEFINED  14774956000                       # Cumulative time (in ticks) in various power states
system.mem_ctrls.bytes_read::.cpu.inst          18304                       # Number of bytes read from this memory
system.mem_ctrls.bytes_read::.cpu.data          14144                       # Number of bytes read from this memory
system.mem_ctrls.bytes_read::total              32448                       # Number of bytes read from this memory
system.mem_ctrls.bytes_inst_read::.cpu.inst        18304                       # Number of instructions bytes read from this memory
system.mem_ctrls.bytes_inst_read::total         18304                       # Number of instructions bytes read from this memory
system.mem_ctrls.bytes_written::.writebacks           64                       # Number of bytes written to this memory
system.mem_ctrls.bytes_written::total              64                       # Number of bytes written to this memory
system.mem_ctrls.num_reads::.cpu.inst             286                       # Number of read requests responded to by this memory
system.mem_ctrls.num_reads::.cpu.data             221                       # Number of read requests responded to by this memory
system.mem_ctrls.num_reads::total                 507                       # Number of read requests responded to by this memory
system.mem_ctrls.num_writes::.writebacks            1                       # Number of write requests responded to by this memory
system.mem_ctrls.num_writes::total                  1                       # Number of write requests responded to by this memory
system.mem_ctrls.bw_read::.cpu.inst           1238853                       # Total read bandwidth from this memory (bytes/s)
system.mem_ctrls.bw_read::.cpu.data            957296                       # Total read bandwidth from this memory (bytes/s)
system.mem_ctrls.bw_read::total               2196149                       # Total read bandwidth from this memory (bytes/s)
system.mem_ctrls.bw_inst_read::.cpu.inst      1238853                       # Instruction read bandwidth from this memory (bytes/s)
system.mem_ctrls.bw_inst_read::total          1238853                       # Instruction read bandwidth from this memory (bytes/s)
system.mem_ctrls.bw_write::.writebacks           4332                       # Write bandwidth from this memory (bytes/s)
system.mem_ctrls.bw_write::total                 4332                       # Write bandwidth from this memory (bytes/s)
system.mem_ctrls.bw_total::.writebacks           4332                       # Total bandwidth to/from this memory (bytes/s)
system.mem_ctrls.bw_total::.cpu.inst          1238853                       # Total bandwidth to/from this memory (bytes/s)
system.mem_ctrls.bw_total::.cpu.data           957296                       # Total bandwidth to/from this memory (bytes/s)
system.mem_ctrls.bw_total::total              2200480                       # Total bandwidth to/from this memory (bytes/s)
system.mem_ctrls.avgPriority_.writebacks::samples        53.00                       # Average QoS priority value for accepted requests
system.mem_ctrls.avgPriority_.cpu.inst::samples       277.00                       # Average QoS priority value for accepted requests
system.mem_ctrls.avgPriority_.cpu.data::samples       219.00                       # Average QoS priority value for accepted requests
system.mem_ctrls.priorityMinLatency      0.000000018750                       # per QoS priority minimum request to response latency (s)
system.mem_ctrls.priorityMaxLatency      0.029511626250                       # per QoS priority maximum request to response latency (s)
system.mem_ctrls.numReadWriteTurnArounds            2                       # Number of turnarounds from READ to WRITE
system.mem_ctrls.numWriteReadTurnArounds            2                       # Number of turnarounds from WRITE to READ
system.mem_ctrls.numStayReadState                4836                       # Number of times bus staying in READ state
system.mem_ctrls.numStayWriteState                 33                       # Number of times bus staying in WRITE state
system.mem_ctrls.readReqs                         507                       # Number of read requests accepted
system.mem_ctrls.writeReqs                         53                       # Number of write requests accepted
system.mem_ctrls.readBursts                       507                       # Number of DRAM read bursts, including those serviced by the write queue
system.mem_ctrls.writeBursts                       53                       # Number of DRAM write bursts, including those merged in the write queue
system.mem_ctrls.servicedByWrQ                     11                       # Number of DRAM read bursts serviced by the write queue
system.mem_ctrls.mergedWrBursts                     0                       # Number of DRAM write bursts merged with an existing one
system.mem_ctrls.neitherReadNorWriteReqs            0                       # Number of requests that are neither read nor write
system.mem_ctrls.perBankRdBursts::0                48                       # Per bank write bursts
system.mem_ctrls.perBankRdBursts::1                 1                       # Per bank write bursts
system.mem_ctrls.perBankRdBursts::2                30                       # Per bank write bursts
system.mem_ctrls.perBankRdBursts::3                 0                       # Per bank write bursts
system.mem_ctrls.perBankRdBursts::4                 9                       # Per bank write bursts
system.mem_ctrls.perBankRdBursts::5                21                       # Per bank write bursts
system.mem_ctrls.perBankRdBursts::6                47                       # Per bank write bursts
system.mem_ctrls.perBankRdBursts::7                16                       # Per bank write bursts
system.mem_ctrls.perBankRdBursts::8                72                       # Per bank write bursts
system.mem_ctrls.perBankRdBursts::9                71                       # Per bank write bursts
system.mem_ctrls.perBankRdBursts::10               72                       # Per bank write bursts
system.mem_ctrls.perBankRdBursts::11               63                       # Per bank write bursts
system.mem_ctrls.perBankRdBursts::12               26                       # Per bank write bursts
system.mem_ctrls.perBankRdBursts::13                7                       # Per bank write bursts
system.mem_ctrls.perBankRdBursts::14               11                       # Per bank write bursts
system.mem_ctrls.perBankRdBursts::15                2                       # Per bank write bursts
system.mem_ctrls.perBankWrBursts::0                13                       # Per bank write bursts
system.mem_ctrls.perBankWrBursts::1                 0                       # Per bank write bursts
system.mem_ctrls.perBankWrBursts::2                 2                       # Per bank write bursts
system.mem_ctrls.perBankWrBursts::3                 0                       # Per bank write bursts
system.mem_ctrls.perBankWrBursts::4                 0                       # Per bank write bursts
system.mem_ctrls.perBankWrBursts::5                 0                       # Per bank write bursts
system.mem_ctrls.perBankWrBursts::6                 0                       # Per bank write bursts
system.mem_ctrls.perBankWrBursts::7                 1                       # Per bank write bursts
system.mem_ctrls.perBankWrBursts::8                11                       # Per bank write bursts
system.mem_ctrls.perBankWrBursts::9                 1                       # Per bank write bursts
system.mem_ctrls.perBankWrBursts::10                0                       # Per bank write bursts
system.mem_ctrls.perBankWrBursts::11                1                       # Per bank write bursts
system.mem_ctrls.perBankWrBursts::12                6                       # Per bank write bursts
system.mem_ctrls.perBankWrBursts::13                0                       # Per bank write bursts
system.mem_ctrls.perBankWrBursts::14                0                       # Per bank write bursts
system.mem_ctrls.perBankWrBursts::15                0                       # Per bank write bursts
system.mem_ctrls.avgRdQLen                       1.00                       # Average read queue length when enqueuing
system.mem_ctrls.avgWrQLen                      20.95                       # Average write queue length when enqueuing
system.mem_ctrls.totQLat                      3272250                       # Total ticks spent queuing
system.mem_ctrls.totBusLat                    2480000                       # Total ticks spent in databus transfers
system.mem_ctrls.totMemAccLat                12572250                       # Total ticks spent from burst creation until serviced by the DRAM
system.mem_ctrls.avgQLat                      6597.28                       # Average queueing delay per DRAM burst
system.mem_ctrls.avgBusLat                    5000.00                       # Average bus latency per DRAM burst
system.mem_ctrls.avgMemAccLat                25347.28                       # Average memory access latency per DRAM burst
system.mem_ctrls.numRdRetry                         0                       # Number of times read queue was full causing retry
system.mem_ctrls.numWrRetry                         0                       # Number of times write queue was full causing retry
system.mem_ctrls.readRowHits                      374                       # Number of row buffer hits during reads
system.mem_ctrls.writeRowHits                      29                       # Number of row buffer hits during writes
system.mem_ctrls.readRowHitRate                 75.40                       # Row buffer hit rate for reads
system.mem_ctrls.writeRowHitRate                54.72                       # Row buffer hit rate for writes
system.mem_ctrls.readPktSize::0                     0                       # Read request sizes (log2)
system.mem_ctrls.readPktSize::1                     0                       # Read request sizes (log2)
system.mem_ctrls.readPktSize::2                     0                       # Read request sizes (log2)
system.mem_ctrls.readPktSize::3                     0                       # Read request sizes (log2)
system.mem_ctrls.readPktSize::4                     0                       # Read request sizes (log2)
system.mem_ctrls.readPktSize::5                     0                       # Read request sizes (log2)
system.mem_ctrls.readPktSize::6                   507                       # Read request sizes (log2)
system.mem_ctrls.writePktSize::0                    0                       # Write request sizes (log2)
system.mem_ctrls.writePktSize::1                    0                       # Write request sizes (log2)
system.mem_ctrls.writePktSize::2                    0                       # Write request sizes (log2)
system.mem_ctrls.writePktSize::3                    0                       # Write request sizes (log2)
system.mem_ctrls.writePktSize::4                    0                       # Write request sizes (log2)
system.mem_ctrls.writePktSize::5                    0                       # Write request sizes (log2)
system.mem_ctrls.writePktSize::6                   53                       # Write request sizes (log2)
system.mem_ctrls.rdQLenPdf::0                     493                       # What read queue length does an incoming req see
system.mem_ctrls.rdQLenPdf::1                       3                       # What read queue length does an incoming req see
system.mem_ctrls.rdQLenPdf::2                       0                       # What read queue length does an incoming req see
system.mem_ctrls.rdQLenPdf::3                       0                       # What read queue length does an incoming req see
system.mem_ctrls.rdQLenPdf::4                       0                       # What read queue length does an incoming req see
system.mem_ctrls.rdQLenPdf::5                       0                       # What read queue length does an incoming req see
system.mem_ctrls.rdQLenPdf::6                       0                       # What read queue length does an incoming req see
system.mem_ctrls.rdQLenPdf::7                       0                       # What read queue length does an incoming req see
system.mem_ctrls.rdQLenPdf::8                       0                       # What read queue length does an incoming req see
system.mem_ctrls.rdQLenPdf::9                       0                       # What read queue length does an incoming req see
system.mem_ctrls.rdQLenPdf::10                      0                       # What read queue length does an incoming req see
system.mem_ctrls.rdQLenPdf::11                      0                       # What read queue length does an incoming req see
system.mem_ctrls.rdQLenPdf::12                      0                       # What read queue length does an incoming req see
system.mem_ctrls.rdQLenPdf::13                      0                       # What read queue length does an incoming req see
system.mem_ctrls.rdQLenPdf::14                      0                       # What read queue length does an incoming req see
system.mem_ctrls.rdQLenPdf::15                      0                       # What read queue length does an incoming req see
system.mem_ctrls.rdQLenPdf::16                      0                       # What read queue length does an incoming req see
system.mem_ctrls.rdQLenPdf::17                      0                       # What read queue length does an incoming req see
system.mem_ctrls.rdQLenPdf::18                      0                       # What read queue length does an incoming req see
system.mem_ctrls.rdQLenPdf::19                      0                       # What read queue length does an incoming req see
system.mem_ctrls.rdQLenPdf::20                      0                       # What read queue length does an incoming req see
system.mem_ctrls.rdQLenPdf::21                      0                       # What read queue length does an incoming req see
system.mem_ctrls.rdQLenPdf::22                      0                       # What read queue length does an incoming req see
system.mem_ctrls.rdQLenPdf::23                      0                       # What read queue length does an incoming req see
system.mem_ctrls.rdQLenPdf::24                      0                       # What read queue length does an incoming req see
system.mem_ctrls.rdQLenPdf::25                      0                       # What read queue length does an incoming req see
system.mem_ctrls.rdQLenPdf::26                      0                       # What read queue length does an incoming req see
system.mem_ctrls.rdQLenPdf::27                      0                       # What read queue length does an incoming req see
system.mem_ctrls.rdQLenPdf::28                      0                       # What read queue length does an incoming req see
system.mem_ctrls.rdQLenPdf::29                      0                       # What read queue length does an incoming req see
system.mem_ctrls.rdQLenPdf::30                      0                       # What read queue length does an incoming req see
system.mem_ctrls.rdQLenPdf::31                      0                       # What read queue length does an incoming req see
system.mem_ctrls.wrQLenPdf::0                       1                       # What write queue length does an incoming req see
system.mem_ctrls.wrQLenPdf::1                       1                       # What write queue length does an incoming req see
system.mem_ctrls.wrQLenPdf::2                       1                       # What write queue length does an incoming req see
system.mem_ctrls.wrQLenPdf::3                       1                       # What write queue length does an incoming req see
system.mem_ctrls.wrQLenPdf::4                       1                       # What write queue length does an incoming req see
system.mem_ctrls.wrQLenPdf::5                       1                       # What write queue length does an incoming req see
system.mem_ctrls.wrQLenPdf::6                       1                       # What write queue length does an incoming req see
system.mem_ctrls.wrQLenPdf::7                       1                       # What write queue length does an incoming req see
system.mem_ctrls.wrQLenPdf::8                       1                       # What write queue length does an incoming req see
system.mem_ctrls.wrQLenPdf::9                       1                       # What write queue length does an incoming req see
system.mem_ctrls.wrQLenPdf::10                      1                       # What write queue length does an incoming req see
system.mem_ctrls.wrQLenPdf::11                      1                       # What write queue length does an incoming req see
system.mem_ctrls.wrQLenPdf::12                      1                       # What write queue length does an incoming req see
system.mem_ctrls.wrQLenPdf::13                      1                       # What write queue length does an incoming req see
system.mem_ctrls.wrQLenPdf::14                      1                       # What write queue length does an incoming req see
system.mem_ctrls.wrQLenPdf::15                      2                       # What write queue length does an incoming req see
system.mem_ctrls.wrQLenPdf::16                      2                       # What write queue length does an incoming req see
system.mem_ctrls.wrQLenPdf::17                      3                       # What write queue length does an incoming req see
system.mem_ctrls.wrQLenPdf::18                      3                       # What write queue length does an incoming req see
system.mem_ctrls.wrQLenPdf::19                      2                       # What write queue length does an incoming req see
system.mem_ctrls.wrQLenPdf::20                      2                       # What write queue length does an incoming req see
system.mem_ctrls.wrQLenPdf::21                      2                       # What write queue length does an incoming req see
system.mem_ctrls.wrQLenPdf::22                      2                       # What write queue length does an incoming req see
system.mem_ctrls.wrQLenPdf::23                      2                       # What write queue length does an incoming req see
system.mem_ctrls.wrQLenPdf::24                      2                       # What write queue length does an incoming req see
system.mem_ctrls.wrQLenPdf::25                      2                       # What write queue length does an incoming req see
system.mem_ctrls.wrQLenPdf::26                      2                       # What write queue length does an incoming req see
system.mem_ctrls.wrQLenPdf::27                      2                       # What write queue length does an incoming req see
system.mem_ctrls.wrQLenPdf::28                      2                       # What write queue length does an incoming req see
system.mem_ctrls.wrQLenPdf::29                      2                       # What write queue length does an incoming req see
system.mem_ctrls.wrQLenPdf::30                      2                       # What write queue length does an incoming req see
system.mem_ctrls.wrQLenPdf::31                      2                       # What write queue length does an incoming req see
system.mem_ctrls.wrQLenPdf::32                      2                       # What write queue length does an incoming req see
system.mem_ctrls.wrQLenPdf::33                      0                       # What write queue length does an incoming req see
system.mem_ctrls.wrQLenPdf::34                      0                       # What write queue length does an incoming req see
system.mem_ctrls.wrQLenPdf::35                      0                       # What write queue length does an incoming req see
system.mem_ctrls.wrQLenPdf::36                      0                       # What write queue length does an incoming req see
system.mem_ctrls.wrQLenPdf::37                      0                       # What write queue length does an incoming req see
system.mem_ctrls.wrQLenPdf::38                      0                       # What write queue length does an incoming req see
system.mem_ctrls.wrQLenPdf::39                      0                       # What write queue length does an incoming req see
system.mem_ctrls.wrQLenPdf::40                      0                       # What write queue length does an incoming req see
system.mem_ctrls.wrQLenPdf::41                      0                       # What write queue length does an incoming req see
system.mem_ctrls.wrQLenPdf::42                      0                       # What write queue length does an incoming req see
system.mem_ctrls.wrQLenPdf::43                      0                       # What write queue length does an incoming req see
system.mem_ctrls.wrQLenPdf::44                      0                       # What write queue length does an incoming req see
system.mem_ctrls.wrQLenPdf::45                      0                       # What write queue length does an incoming req see
system.mem_ctrls.wrQLenPdf::46                      0                       # What write queue length does an incoming req see
system.mem_ctrls.wrQLenPdf::47                      0                       # What write queue length does an incoming req see
system.mem_ctrls.wrQLenPdf::48                      0                       # What write queue length does an incoming req see
system.mem_ctrls.wrQLenPdf::49                      0                       # What write queue length does an incoming req see
system.mem_ctrls.wrQLenPdf::50                      0                       # What write queue length does an incoming req see
system.mem_ctrls.wrQLenPdf::51                      0                       # What write queue length does an incoming req see
system.mem_ctrls.wrQLenPdf::52                      0                       # What write queue length does an incoming req see
system.mem_ctrls.wrQLenPdf::53                      0                       # What write queue length does an incoming req see
system.mem_ctrls.wrQLenPdf::54                      0                       # What write queue length does an incoming req see
system.mem_ctrls.wrQLenPdf::55                      0                       # What write queue length does an incoming req see
system.mem_ctrls.wrQLenPdf::56                      0                       # What write queue length does an incoming req see
system.mem_ctrls.wrQLenPdf::57                      0                       # What write queue length does an incoming req see
system.mem_ctrls.wrQLenPdf::58                      0                       # What write queue length does an incoming req see
system.mem_ctrls.wrQLenPdf::59                      0                       # What write queue length does an incoming req see
system.mem_ctrls.wrQLenPdf::60                      0                       # What write queue length does an incoming req see
system.mem_ctrls.wrQLenPdf::61                      0                       # What write queue length does an incoming req see
system.mem_ctrls.wrQLenPdf::62                      0                       # What write queue length does an incoming req see
system.mem_ctrls.wrQLenPdf::63                      0                       # What write queue length does an incoming req see
system.mem_ctrls.bytesPerActivate::samples          119                       # Bytes accessed per row activation
system.mem_ctrls.bytesPerActivate::mean    269.983193                       # Bytes accessed per row activation
system.mem_ctrls.bytesPerActivate::gmean   194.022182                       # Bytes accessed per row activation
system.mem_ctrls.bytesPerActivate::stdev   241.366097                       # Bytes accessed per row activation
system.mem_ctrls.bytesPerActivate::0-127           28     23.53%     23.53% # Bytes accessed per row activation
system.mem_ctrls.bytesPerActivate::128-255           40     33.61%     57.14% # Bytes accessed per row activation
system.mem_ctrls.bytesPerActivate::256-383           24     20.17%     77.31% # Bytes accessed per row activation
system.mem_ctrls.bytesPerActivate::384-511           11      9.24%     86.55% # Bytes accessed per row activation
system.mem_ctrls.bytesPerActivate::512-639            3      2.52%     89.08% # Bytes accessed per row activation
system.mem_ctrls.bytesPerActivate::640-767            3      2.52%     91.60% # Bytes accessed per row activation
system.mem_ctrls.bytesPerActivate::768-895            4      3.36%     94.96% # Bytes accessed per row activation
system.mem_ctrls.bytesPerActivate::896-1023            1      0.84%     95.80% # Bytes accessed per row activation
system.mem_ctrls.bytesPerActivate::1024-1151            5      4.20%    100.00% # Bytes accessed per row activation
system.mem_ctrls.bytesPerActivate::total          119                       # Bytes accessed per row activation
system.mem_ctrls.rdPerTurnAround::samples            2                       # Reads before turning the bus around for writes
system.mem_ctrls.rdPerTurnAround::mean     245.500000                       # Reads before turning the bus around for writes
system.mem_ctrls.rdPerTurnAround::gmean    165.311827                       # Reads before turning the bus around for writes
system.mem_ctrls.rdPerTurnAround::stdev    256.679762                       # Reads before turning the bus around for writes
system.mem_ctrls.rdPerTurnAround::64-79             1     50.00%     50.00% # Reads before turning the bus around for writes
system.mem_ctrls.rdPerTurnAround::416-431            1     50.00%    100.00% # Reads before turning the bus around for writes
system.mem_ctrls.rdPerTurnAround::total             2                       # Reads before turning the bus around for writes
system.mem_ctrls.wrPerTurnAround::samples            2                       # Writes before turning the bus around for reads
system.mem_ctrls.wrPerTurnAround::mean      17.500000                       # Writes before turning the bus around for reads
system.mem_ctrls.wrPerTurnAround::gmean     17.435596                       # Writes before turning the bus around for reads
system.mem_ctrls.wrPerTurnAround::stdev      2.121320                       # Writes before turning the bus around for reads
system.mem_ctrls.wrPerTurnAround::16                1     50.00%     50.00% # Writes before turning the bus around for reads
system.mem_ctrls.wrPerTurnAround::19                1     50.00%    100.00% # Writes before turning the bus around for reads
system.mem_ctrls.wrPerTurnAround::total             2                       # Writes before turning the bus around for reads
system.mem_ctrls.bytesReadDRAM                  31744                       # Total number of bytes read from DRAM
system.mem_ctrls.bytesReadWrQ                     704                       # Total number of bytes read from write queue
system.mem_ctrls.bytesWritten                    2240                       # Total number of bytes written to DRAM
system.mem_ctrls.bytesReadSys                   32448                       # Total read bytes from the system interface side
system.mem_ctrls.bytesWrittenSys                 3392                       # Total written bytes from the system interface side
system.mem_ctrls.avgRdBW                         2.15                       # Average DRAM read bandwidth in MiByte/s
system.mem_ctrls.avgWrBW                         0.15                       # Average achieved write bandwidth in MiByte/s
system.mem_ctrls.avgRdBWSys                      2.20                       # Average system read bandwidth in MiByte/s
system.mem_ctrls.avgWrBWSys                      0.23                       # Average system write bandwidth in MiByte/s
system.mem_ctrls.peakBW                      12800.00                       # Theoretical peak bandwidth in MiByte/s
system.mem_ctrls.busUtil                         0.02                       # Data bus utilization in percentage
system.mem_ctrls.busUtilRead                     0.02                       # Data bus utilization in percentage for reads
system.mem_ctrls.busUtilWrite                    0.00                       # Data bus utilization in percentage for writes
system.mem_ctrls.totGap                   14774942000                       # Total gap between requests
system.mem_ctrls.avgGap                   26383825.00                       # Average gap between requests
system.mem_ctrls.masterReadBytes::.cpu.inst        17728                       # Per-master bytes read from memory
system.mem_ctrls.masterReadBytes::.cpu.data        14016                       # Per-master bytes read from memory
system.mem_ctrls.masterWriteBytes::.writebacks         2240                       # Per-master bytes write to memory
system.mem_ctrls.masterReadRate::.cpu.inst 1199868.209421401843                       # Per-master bytes read from memory rate (Bytes/sec)
system.mem_ctrls.masterReadRate::.cpu.data 948632.266654465813                       # Per-master bytes read from memory rate (Bytes/sec)
system.mem_ctrls.masterWriteRate::.writebacks 151607.896497289068                       # Per-master bytes write to memory rate (Bytes/sec)
system.mem_ctrls.masterReadAccesses::.cpu.inst          286                       # Per-master read serviced memory accesses
system.mem_ctrls.masterReadAccesses::.cpu.data          221                       # Per-master read serviced memory accesses
system.mem_ctrls.masterWriteAccesses::.writebacks           53                       # Per-master write serviced memory accesses
system.mem_ctrls.masterReadTotalLat::.cpu.inst      7223250                       # Per-master read total memory access latency
system.mem_ctrls.masterReadTotalLat::.cpu.data      5349000                       # Per-master read total memory access latency
system.mem_ctrls.masterWriteTotalLat::.writebacks 309445788750                       # Per-master write total memory access latency
system.mem_ctrls.masterReadAvgLat::.cpu.inst     25256.12                       # Per-master read average memory access latency
system.mem_ctrls.masterReadAvgLat::.cpu.data     24203.62                       # Per-master read average memory access latency
system.mem_ctrls.masterWriteAvgLat::.writebacks 5838599787.74                       # Per-master write average memory access latency
system.mem_ctrls.pageHitRate                    73.41                       # Row buffer hit rate, read and write combined
system.mem_ctrls.rank1.actEnergy               635460                       # Energy for activate commands per rank (pJ)
system.mem_ctrls.rank1.preEnergy               322575                       # Energy for precharge commands per rank (pJ)
system.mem_ctrls.rank1.readEnergy             2313360                       # Energy for read commands per rank (pJ)
system.mem_ctrls.rank1.writeEnergy              99180                       # Energy for write commands per rank (pJ)
system.mem_ctrls.rank1.refreshEnergy     1165972080.000000                       # Energy for refresh commands per rank (pJ)
system.mem_ctrls.rank1.actBackEnergy        277675500                       # Energy for active background per rank (pJ)
system.mem_ctrls.rank1.preBackEnergy       5439751200                       # Energy for precharge background per rank (pJ)
system.mem_ctrls.rank1.actPowerDownEnergy            0                       # Energy for active power-down per rank (pJ)
system.mem_ctrls.rank1.prePowerDownEnergy            0                       # Energy for precharge power-down per rank (pJ)
system.mem_ctrls.rank1.selfRefreshEnergy            0                       # Energy for self refresh per rank (pJ)
system.mem_ctrls.rank1.totalEnergy         6886769355                       # Total energy per rank (pJ)
system.mem_ctrls.rank1.averagePower        466.110989                       # Core power per rank (mW)
system.mem_ctrls.rank1.totalIdleTime                0                       # Total Idle time Per DRAM Rank
system.mem_ctrls.rank1.memoryStateTime::IDLE  14139639750                       # Time in different power states
system.mem_ctrls.rank1.memoryStateTime::REF    493220000                       # Time in different power states
system.mem_ctrls.rank1.memoryStateTime::SREF            0                       # Time in different power states
system.mem_ctrls.rank1.memoryStateTime::PRE_PDN            0                       # Time in different power states
system.mem_ctrls.rank1.memoryStateTime::ACT    142096250                       # Time in different power states
system.mem_ctrls.rank1.memoryStateTime::ACT_PDN            0                       # Time in different power states
system.mem_ctrls.rank0.actEnergy               278460                       # Energy for activate commands per rank (pJ)
system.mem_ctrls.rank0.preEnergy               129030                       # Energy for precharge commands per rank (pJ)
system.mem_ctrls.rank0.readEnergy             1228080                       # Energy for read commands per rank (pJ)
system.mem_ctrls.rank0.writeEnergy              83520                       # Energy for write commands per rank (pJ)
system.mem_ctrls.rank0.refreshEnergy     1165972080.000000                       # Energy for refresh commands per rank (pJ)
system.mem_ctrls.rank0.actBackEnergy        233377950                       # Energy for active background per rank (pJ)
system.mem_ctrls.rank0.preBackEnergy       5477054400                       # Energy for precharge background per rank (pJ)
system.mem_ctrls.rank0.actPowerDownEnergy            0                       # Energy for active power-down per rank (pJ)
system.mem_ctrls.rank0.prePowerDownEnergy            0                       # Energy for precharge power-down per rank (pJ)
system.mem_ctrls.rank0.selfRefreshEnergy            0                       # Energy for self refresh per rank (pJ)
system.mem_ctrls.rank0.totalEnergy         6878123520                       # Total energy per rank (pJ)
system.mem_ctrls.rank0.averagePower        465.525821                       # Core power per rank (mW)
system.mem_ctrls.rank0.totalIdleTime                0                       # Total Idle time Per DRAM Rank
system.mem_ctrls.rank0.memoryStateTime::IDLE  14236978500                       # Time in different power states
system.mem_ctrls.rank0.memoryStateTime::REF    493220000                       # Time in different power states
system.mem_ctrls.rank0.memoryStateTime::SREF            0                       # Time in different power states
system.mem_ctrls.rank0.memoryStateTime::PRE_PDN            0                       # Time in different power states
system.mem_ctrls.rank0.memoryStateTime::ACT     44757500                       # Time in different power states
system.mem_ctrls.rank0.memoryStateTime::ACT_PDN            0                       # Time in different power states
system.cpu_clk_domain.clock                       500                       # Clock period in ticks
system.cpu.numPwrStateTransitions                   1                       # Number of power state transitions
system.cpu.pwrStateResidencyTicks::ON     14774956000                       # Cumulative time (in ticks) in various power states
system.cpu.icache.pwrStateResidencyTicks::UNDEFINED  14774956000                       # Cumulative time (in ticks) in various power states
system.cpu.icache.demand_hits::.cpu.inst      9674572                       # number of demand (read+write) hits
system.cpu.icache.demand_hits::total          9674572                       # number of demand (read+write) hits
system.cpu.icache.overall_hits::.cpu.inst      9674572                       # number of overall hits
system.cpu.icache.overall_hits::total         9674572                       # number of overall hits
system.cpu.icache.demand_misses::.cpu.inst          286                       # number of demand (read+write) misses
system.cpu.icache.demand_misses::total            286                       # number of demand (read+write) misses
system.cpu.icache.overall_misses::.cpu.inst          286                       # number of overall misses
system.cpu.icache.overall_misses::total           286                       # number of overall misses
system.cpu.icache.demand_miss_latency::.cpu.inst     16404000                       # number of demand (read+write) miss cycles
system.cpu.icache.demand_miss_latency::total     16404000                       # number of demand (read+write) miss cycles
system.cpu.icache.overall_miss_latency::.cpu.inst     16404000                       # number of overall miss cycles
system.cpu.icache.overall_miss_latency::total     16404000                       # number of overall miss cycles
system.cpu.icache.demand_accesses::.cpu.inst      9674858                       # number of demand (read+write) accesses
system.cpu.icache.demand_accesses::total      9674858                       # number of demand (read+write) accesses
system.cpu.icache.overall_accesses::.cpu.inst      9674858                       # number of overall (read+write) accesses
system.cpu.icache.overall_accesses::total      9674858                       # number of overall (read+write) accesses
system.cpu.icache.demand_miss_rate::.cpu.inst     0.000030                       # miss rate for demand accesses
system.cpu.icache.demand_miss_rate::total     0.000030                       # miss rate for demand accesses
system.cpu.icache.overall_miss_rate::.cpu.inst     0.000030                       # miss rate for overall accesses
system.cpu.icache.overall_miss_rate::total     0.000030                       # miss rate for overall accesses
system.cpu.icache.demand_avg_miss_latency::.cpu.inst 57356.643357                       # average overall miss latency
system.cpu.icache.demand_avg_miss_latency::total 57356.643357                       # average overall miss latency
system.cpu.icache.overall_avg_miss_latency::.cpu.inst 57356.643357                       # average overall miss latency
system.cpu.icache.overall_avg_miss_latency::total 57356.643357                       # average overall miss latency
system.cpu.icache.blocked_cycles::no_mshrs            0                       # number of cycles access was blocked
system.cpu.icache.blocked_cycles::no_targets            0                       # number of cycles access was blocked
system.cpu.icache.blocked::no_mshrs                 0                       # number of cycles access was blocked
system.cpu.icache.blocked::no_targets               0                       # number of cycles access was blocked
system.cpu.icache.avg_blocked_cycles::no_mshrs          nan                       # average number of cycles each access was blocked
system.cpu.icache.avg_blocked_cycles::no_targets          nan                       # average number of cycles each access was blocked
system.cpu.icache.writebacks::.writebacks           54                       # number of writebacks
system.cpu.icache.writebacks::total                54                       # number of writebacks
system.cpu.icache.demand_mshr_misses::.cpu.inst          286                       # number of demand (read+write) MSHR misses
system.cpu.icache.demand_mshr_misses::total          286                       # number of demand (read+write) MSHR misses
system.cpu.icache.overall_mshr_misses::.cpu.inst          286                       # number of overall MSHR misses
system.cpu.icache.overall_mshr_misses::total          286                       # number of overall MSHR misses
system.cpu.icache.demand_mshr_miss_latency::.cpu.inst     16118000                       # number of demand (read+write) MSHR miss cycles
system.cpu.icache.demand_mshr_miss_latency::total     16118000                       # number of demand (read+write) MSHR miss cycles
system.cpu.icache.overall_mshr_miss_latency::.cpu.inst     16118000                       # number of overall MSHR miss cycles
system.cpu.icache.overall_mshr_miss_latency::total     16118000                       # number of overall MSHR miss cycles
system.cpu.icache.demand_mshr_miss_rate::.cpu.inst     0.000030                       # mshr miss rate for demand accesses
system.cpu.icache.demand_mshr_miss_rate::total     0.000030                       # mshr miss rate for demand accesses
system.cpu.icache.overall_mshr_miss_rate::.cpu.inst     0.000030                       # mshr miss rate for overall accesses
system.cpu.icache.overall_mshr_miss_rate::total     0.000030                       # mshr miss rate for overall accesses
system.cpu.icache.demand_avg_mshr_miss_latency::.cpu.inst 56356.643357                       # average overall mshr miss latency
system.cpu.icache.demand_avg_mshr_miss_latency::total 56356.643357                       # average overall mshr miss latency
system.cpu.icache.overall_avg_mshr_miss_latency::.cpu.inst 56356.643357                       # average overall mshr miss latency
system.cpu.icache.overall_avg_mshr_miss_latency::total 56356.643357                       # average overall mshr miss latency
system.cpu.icache.replacements                     54                       # number of replacements
system.cpu.icache.ReadReq_hits::.cpu.inst      9674572                       # number of ReadReq hits
system.cpu.icache.ReadReq_hits::total         9674572                       # number of ReadReq hits
system.cpu.icache.ReadReq_misses::.cpu.inst          286                       # number of ReadReq misses
system.cpu.icache.ReadReq_misses::total           286                       # number of ReadReq misses
system.cpu.icache.ReadReq_miss_latency::.cpu.inst     16404000                       # number of ReadReq miss cycles
system.cpu.icache.ReadReq_miss_latency::total     16404000                       # number of ReadReq miss cycles
system.cpu.icache.ReadReq_accesses::.cpu.inst      9674858                       # number of ReadReq accesses(hits+misses)
system.cpu.icache.ReadReq_accesses::total      9674858                       # number of ReadReq accesses(hits+misses)
system.cpu.icache.ReadReq_miss_rate::.cpu.inst     0.000030                       # miss rate for ReadReq accesses
system.cpu.icache.ReadReq_miss_rate::total     0.000030                       # miss rate for ReadReq accesses
system.cpu.icache.ReadReq_avg_miss_latency::.cpu.inst 57356.643357                       # average ReadReq miss latency
system.cpu.icache.ReadReq_avg_miss_latency::total 57356.643357                       # average ReadReq miss latency
system.cpu.icache.ReadReq_mshr_misses::.cpu.inst          286                       # number of ReadReq MSHR misses
system.cpu.icache.ReadReq_mshr_misses::total          286                       # number of ReadReq MSHR misses
system.cpu.icache.ReadReq_mshr_miss_latency::.cpu.inst     16118000                       # number of ReadReq MSHR miss cycles
system.cpu.icache.ReadReq_mshr_miss_latency::total     16118000                       # number of ReadReq MSHR miss cycles
system.cpu.icache.ReadReq_mshr_miss_rate::.cpu.inst     0.000030                       # mshr miss rate for ReadReq accesses
system.cpu.icache.ReadReq_mshr_miss_rate::total     0.000030                       # mshr miss rate for ReadReq accesses
system.cpu.icache.ReadReq_avg_mshr_miss_latency::.cpu.inst 56356.643357                       # average ReadReq mshr miss latency
system.cpu.icache.ReadReq_avg_mshr_miss_latency::total 56356.643357                       # average ReadReq mshr miss latency
system.cpu.icache.tags.pwrStateResidencyTicks::UNDEFINED  14774956000                       # Cumulative time (in ticks) in various power states
system.cpu.icache.tags.tagsinuse           178.831911                       # Cycle average of tags in use
system.cpu.icache.tags.total_refs             9674858                       # Total number of references to valid blocks.
system.cpu.icache.tags.sampled_refs               286                       # Sample count of references to valid blocks.
system.cpu.icache.tags.avg_refs          33828.174825                       # Average number of references to valid blocks.
system.cpu.icache.tags.warmup_cycle             77000                       # Cycle when the warmup percentage was hit.
system.cpu.icache.tags.occ_blocks::.cpu.inst   178.831911                       # Average occupied blocks per requestor
system.cpu.icache.tags.occ_percent::.cpu.inst     0.349281                       # Average percentage of cache occupancy
system.cpu.icache.tags.occ_percent::total     0.349281                       # Average percentage of cache occupancy
system.cpu.icache.tags.occ_task_id_blocks::1024          232                       # Occupied blocks per task id
system.cpu.icache.tags.age_task_id_blocks_1024::0           81                       # Occupied blocks per task id
system.cpu.icache.tags.age_task_id_blocks_1024::4          151                       # Occupied blocks per task id
system.cpu.icache.tags.occ_task_id_percent::1024     0.453125                       # Percentage of cache occupancy per task id
system.cpu.icache.tags.tag_accesses          19350002                       # Number of tag accesses
system.cpu.icache.tags.data_accesses         19350002                       # Number of data accesses
system.cpu.dtb.walker.pwrStateResidencyTicks::UNDEFINED  14774956000                       # Cumulative time (in ticks) in various power states
system.cpu.dtb.stage2_mmu.stage2_tlb.walker.pwrStateResidencyTicks::UNDEFINED  14774956000                       # Cumulative time (in ticks) in various power states
system.cpu.itb.walker.pwrStateResidencyTicks::UNDEFINED  14774956000                       # Cumulative time (in ticks) in various power states
system.cpu.itb.stage2_mmu.stage2_tlb.walker.pwrStateResidencyTicks::UNDEFINED  14774956000                       # Cumulative time (in ticks) in various power states
system.cpu.dcache.pwrStateResidencyTicks::UNDEFINED  14774956000                       # Cumulative time (in ticks) in various power states
system.cpu.dcache.demand_hits::.cpu.data      5067189                       # number of demand (read+write) hits
system.cpu.dcache.demand_hits::total          5067189                       # number of demand (read+write) hits
system.cpu.dcache.overall_hits::.cpu.data      5067210                       # number of overall hits
system.cpu.dcache.overall_hits::total         5067210                       # number of overall hits
system.cpu.dcache.demand_misses::.cpu.data          213                       # number of demand (read+write) misses
system.cpu.dcache.demand_misses::total            213                       # number of demand (read+write) misses
system.cpu.dcache.overall_misses::.cpu.data          225                       # number of overall misses
system.cpu.dcache.overall_misses::total           225                       # number of overall misses
system.cpu.dcache.demand_miss_latency::.cpu.data     12017000                       # number of demand (read+write) miss cycles
system.cpu.dcache.demand_miss_latency::total     12017000                       # number of demand (read+write) miss cycles
system.cpu.dcache.overall_miss_latency::.cpu.data     12017000                       # number of overall miss cycles
system.cpu.dcache.overall_miss_latency::total     12017000                       # number of overall miss cycles
system.cpu.dcache.demand_accesses::.cpu.data      5067402                       # number of demand (read+write) accesses
system.cpu.dcache.demand_accesses::total      5067402                       # number of demand (read+write) accesses
system.cpu.dcache.overall_accesses::.cpu.data      5067435                       # number of overall (read+write) accesses
system.cpu.dcache.overall_accesses::total      5067435                       # number of overall (read+write) accesses
system.cpu.dcache.demand_miss_rate::.cpu.data     0.000042                       # miss rate for demand accesses
system.cpu.dcache.demand_miss_rate::total     0.000042                       # miss rate for demand accesses
system.cpu.dcache.overall_miss_rate::.cpu.data     0.000044                       # miss rate for overall accesses
system.cpu.dcache.overall_miss_rate::total     0.000044                       # miss rate for overall accesses
system.cpu.dcache.demand_avg_miss_latency::.cpu.data 56417.840376                       # average overall miss latency
system.cpu.dcache.demand_avg_miss_latency::total 56417.840376                       # average overall miss latency
system.cpu.dcache.overall_avg_miss_latency::.cpu.data 53408.888889                       # average overall miss latency
system.cpu.dcache.overall_avg_miss_latency::total 53408.888889                       # average overall miss latency
system.cpu.dcache.blocked_cycles::no_mshrs            0                       # number of cycles access was blocked
system.cpu.dcache.blocked_cycles::no_targets            0                       # number of cycles access was blocked
system.cpu.dcache.blocked::no_mshrs                 0                       # number of cycles access was blocked
system.cpu.dcache.blocked::no_targets               0                       # number of cycles access was blocked
system.cpu.dcache.avg_blocked_cycles::no_mshrs          nan                       # average number of cycles each access was blocked
system.cpu.dcache.avg_blocked_cycles::no_targets          nan                       # average number of cycles each access was blocked
system.cpu.dcache.writebacks::.writebacks            1                       # number of writebacks
system.cpu.dcache.writebacks::total                 1                       # number of writebacks
system.cpu.dcache.demand_mshr_hits::.cpu.data            2                       # number of demand (read+write) MSHR hits
system.cpu.dcache.demand_mshr_hits::total            2                       # number of demand (read+write) MSHR hits
system.cpu.dcache.overall_mshr_hits::.cpu.data            2                       # number of overall MSHR hits
system.cpu.dcache.overall_mshr_hits::total            2                       # number of overall MSHR hits
system.cpu.dcache.demand_mshr_misses::.cpu.data          211                       # number of demand (read+write) MSHR misses
system.cpu.dcache.demand_mshr_misses::total          211                       # number of demand (read+write) MSHR misses
system.cpu.dcache.overall_mshr_misses::.cpu.data          220                       # number of overall MSHR misses
system.cpu.dcache.overall_mshr_misses::total          220                       # number of overall MSHR misses
system.cpu.dcache.demand_mshr_miss_latency::.cpu.data     11709000                       # number of demand (read+write) MSHR miss cycles
system.cpu.dcache.demand_mshr_miss_latency::total     11709000                       # number of demand (read+write) MSHR miss cycles
system.cpu.dcache.overall_mshr_miss_latency::.cpu.data     12215000                       # number of overall MSHR miss cycles
system.cpu.dcache.overall_mshr_miss_latency::total     12215000                       # number of overall MSHR miss cycles
system.cpu.dcache.demand_mshr_miss_rate::.cpu.data     0.000042                       # mshr miss rate for demand accesses
system.cpu.dcache.demand_mshr_miss_rate::total     0.000042                       # mshr miss rate for demand accesses
system.cpu.dcache.overall_mshr_miss_rate::.cpu.data     0.000043                       # mshr miss rate for overall accesses
system.cpu.dcache.overall_mshr_miss_rate::total     0.000043                       # mshr miss rate for overall accesses
system.cpu.dcache.demand_avg_mshr_miss_latency::.cpu.data 55492.890995                       # average overall mshr miss latency
system.cpu.dcache.demand_avg_mshr_miss_latency::total 55492.890995                       # average overall mshr miss latency
system.cpu.dcache.overall_avg_mshr_miss_latency::.cpu.data 55522.727273                       # average overall mshr miss latency
system.cpu.dcache.overall_avg_mshr_miss_latency::total 55522.727273                       # average overall mshr miss latency
system.cpu.dcache.replacements                      3                       # number of replacements
system.cpu.dcache.ReadReq_hits::.cpu.data      4537994                       # number of ReadReq hits
system.cpu.dcache.ReadReq_hits::total         4537994                       # number of ReadReq hits
system.cpu.dcache.ReadReq_misses::.cpu.data           89                       # number of ReadReq misses
system.cpu.dcache.ReadReq_misses::total            89                       # number of ReadReq misses
system.cpu.dcache.ReadReq_miss_latency::.cpu.data      5041000                       # number of ReadReq miss cycles
system.cpu.dcache.ReadReq_miss_latency::total      5041000                       # number of ReadReq miss cycles
system.cpu.dcache.ReadReq_accesses::.cpu.data      4538083                       # number of ReadReq accesses(hits+misses)
system.cpu.dcache.ReadReq_accesses::total      4538083                       # number of ReadReq accesses(hits+misses)
system.cpu.dcache.ReadReq_miss_rate::.cpu.data     0.000020                       # miss rate for ReadReq accesses
system.cpu.dcache.ReadReq_miss_rate::total     0.000020                       # miss rate for ReadReq accesses
system.cpu.dcache.ReadReq_avg_miss_latency::.cpu.data 56640.449438                       # average ReadReq miss latency
system.cpu.dcache.ReadReq_avg_miss_latency::total 56640.449438                       # average ReadReq miss latency
system.cpu.dcache.ReadReq_mshr_hits::.cpu.data            2                       # number of ReadReq MSHR hits
system.cpu.dcache.ReadReq_mshr_hits::total            2                       # number of ReadReq MSHR hits
system.cpu.dcache.ReadReq_mshr_misses::.cpu.data           87                       # number of ReadReq MSHR misses
system.cpu.dcache.ReadReq_mshr_misses::total           87                       # number of ReadReq MSHR misses
system.cpu.dcache.ReadReq_mshr_miss_latency::.cpu.data      4857000                       # number of ReadReq MSHR miss cycles
system.cpu.dcache.ReadReq_mshr_miss_latency::total      4857000                       # number of ReadReq MSHR miss cycles
system.cpu.dcache.ReadReq_mshr_miss_rate::.cpu.data     0.000019                       # mshr miss rate for ReadReq accesses
system.cpu.dcache.ReadReq_mshr_miss_rate::total     0.000019                       # mshr miss rate for ReadReq accesses
system.cpu.dcache.ReadReq_avg_mshr_miss_latency::.cpu.data 55827.586207                       # average ReadReq mshr miss latency
system.cpu.dcache.ReadReq_avg_mshr_miss_latency::total 55827.586207                       # average ReadReq mshr miss latency
system.cpu.dcache.WriteReq_hits::.cpu.data       529195                       # number of WriteReq hits
system.cpu.dcache.WriteReq_hits::total         529195                       # number of WriteReq hits
system.cpu.dcache.WriteReq_misses::.cpu.data          124                       # number of WriteReq misses
system.cpu.dcache.WriteReq_misses::total          124                       # number of WriteReq misses
system.cpu.dcache.WriteReq_miss_latency::.cpu.data      6976000                       # number of WriteReq miss cycles
system.cpu.dcache.WriteReq_miss_latency::total      6976000                       # number of WriteReq miss cycles
system.cpu.dcache.WriteReq_accesses::.cpu.data       529319                       # number of WriteReq accesses(hits+misses)
system.cpu.dcache.WriteReq_accesses::total       529319                       # number of WriteReq accesses(hits+misses)
system.cpu.dcache.WriteReq_miss_rate::.cpu.data     0.000234                       # miss rate for WriteReq accesses
system.cpu.dcache.WriteReq_miss_rate::total     0.000234                       # miss rate for WriteReq accesses
system.cpu.dcache.WriteReq_avg_miss_latency::.cpu.data 56258.064516                       # average WriteReq miss latency
system.cpu.dcache.WriteReq_avg_miss_latency::total 56258.064516                       # average WriteReq miss latency
system.cpu.dcache.WriteReq_mshr_misses::.cpu.data          124                       # number of WriteReq MSHR misses
system.cpu.dcache.WriteReq_mshr_misses::total          124                       # number of WriteReq MSHR misses
system.cpu.dcache.WriteReq_mshr_miss_latency::.cpu.data      6852000                       # number of WriteReq MSHR miss cycles
system.cpu.dcache.WriteReq_mshr_miss_latency::total      6852000                       # number of WriteReq MSHR miss cycles
system.cpu.dcache.WriteReq_mshr_miss_rate::.cpu.data     0.000234                       # mshr miss rate for WriteReq accesses
system.cpu.dcache.WriteReq_mshr_miss_rate::total     0.000234                       # mshr miss rate for WriteReq accesses
system.cpu.dcache.WriteReq_avg_mshr_miss_latency::.cpu.data 55258.064516                       # average WriteReq mshr miss latency
system.cpu.dcache.WriteReq_avg_mshr_miss_latency::total 55258.064516                       # average WriteReq mshr miss latency
system.cpu.dcache.SoftPFReq_hits::.cpu.data           21                       # number of SoftPFReq hits
system.cpu.dcache.SoftPFReq_hits::total            21                       # number of SoftPFReq hits
system.cpu.dcache.SoftPFReq_misses::.cpu.data           12                       # number of SoftPFReq misses
system.cpu.dcache.SoftPFReq_misses::total           12                       # number of SoftPFReq misses
system.cpu.dcache.SoftPFReq_accesses::.cpu.data           33                       # number of SoftPFReq accesses(hits+misses)
system.cpu.dcache.SoftPFReq_accesses::total           33                       # number of SoftPFReq accesses(hits+misses)
system.cpu.dcache.SoftPFReq_miss_rate::.cpu.data     0.363636                       # miss rate for SoftPFReq accesses
system.cpu.dcache.SoftPFReq_miss_rate::total     0.363636                       # miss rate for SoftPFReq accesses
system.cpu.dcache.SoftPFReq_mshr_misses::.cpu.data            9                       # number of SoftPFReq MSHR misses
system.cpu.dcache.SoftPFReq_mshr_misses::total            9                       # number of SoftPFReq MSHR misses
system.cpu.dcache.SoftPFReq_mshr_miss_latency::.cpu.data       506000                       # number of SoftPFReq MSHR miss cycles
system.cpu.dcache.SoftPFReq_mshr_miss_latency::total       506000                       # number of SoftPFReq MSHR miss cycles
system.cpu.dcache.SoftPFReq_mshr_miss_rate::.cpu.data     0.272727                       # mshr miss rate for SoftPFReq accesses
system.cpu.dcache.SoftPFReq_mshr_miss_rate::total     0.272727                       # mshr miss rate for SoftPFReq accesses
system.cpu.dcache.SoftPFReq_avg_mshr_miss_latency::.cpu.data 56222.222222                       # average SoftPFReq mshr miss latency
system.cpu.dcache.SoftPFReq_avg_mshr_miss_latency::total 56222.222222                       # average SoftPFReq mshr miss latency
system.cpu.dcache.LoadLockedReq_hits::.cpu.data         2019                       # number of LoadLockedReq hits
system.cpu.dcache.LoadLockedReq_hits::total         2019                       # number of LoadLockedReq hits
system.cpu.dcache.LoadLockedReq_misses::.cpu.data            1                       # number of LoadLockedReq misses
system.cpu.dcache.LoadLockedReq_misses::total            1                       # number of LoadLockedReq misses
system.cpu.dcache.LoadLockedReq_miss_latency::.cpu.data        51000                       # number of LoadLockedReq miss cycles
system.cpu.dcache.LoadLockedReq_miss_latency::total        51000                       # number of LoadLockedReq miss cycles
system.cpu.dcache.LoadLockedReq_accesses::.cpu.data         2020                       # number of LoadLockedReq accesses(hits+misses)
system.cpu.dcache.LoadLockedReq_accesses::total         2020                       # number of LoadLockedReq accesses(hits+misses)
system.cpu.dcache.LoadLockedReq_miss_rate::.cpu.data     0.000495                       # miss rate for LoadLockedReq accesses
system.cpu.dcache.LoadLockedReq_miss_rate::total     0.000495                       # miss rate for LoadLockedReq accesses
system.cpu.dcache.LoadLockedReq_avg_miss_latency::.cpu.data        51000                       # average LoadLockedReq miss latency
system.cpu.dcache.LoadLockedReq_avg_miss_latency::total        51000                       # average LoadLockedReq miss latency
system.cpu.dcache.LoadLockedReq_mshr_misses::.cpu.data            1                       # number of LoadLockedReq MSHR misses
system.cpu.dcache.LoadLockedReq_mshr_misses::total            1                       # number of LoadLockedReq MSHR misses
system.cpu.dcache.LoadLockedReq_mshr_miss_latency::.cpu.data        50000                       # number of LoadLockedReq MSHR miss cycles
system.cpu.dcache.LoadLockedReq_mshr_miss_latency::total        50000                       # number of LoadLockedReq MSHR miss cycles
system.cpu.dcache.LoadLockedReq_mshr_miss_rate::.cpu.data     0.000495                       # mshr miss rate for LoadLockedReq accesses
system.cpu.dcache.LoadLockedReq_mshr_miss_rate::total     0.000495                       # mshr miss rate for LoadLockedReq accesses
system.cpu.dcache.LoadLockedReq_avg_mshr_miss_latency::.cpu.data        50000                       # average LoadLockedReq mshr miss latency
system.cpu.dcache.LoadLockedReq_avg_mshr_miss_latency::total        50000                       # average LoadLockedReq mshr miss latency
system.cpu.dcache.StoreCondReq_hits::.cpu.data         2020                       # number of StoreCondReq hits
system.cpu.dcache.StoreCondReq_hits::total         2020                       # number of StoreCondReq hits
system.cpu.dcache.StoreCondReq_accesses::.cpu.data         2020                       # number of StoreCondReq accesses(hits+misses)
system.cpu.dcache.StoreCondReq_accesses::total         2020                       # number of StoreCondReq accesses(hits+misses)
system.cpu.dcache.tags.pwrStateResidencyTicks::UNDEFINED  14774956000                       # Cumulative time (in ticks) in various power states
system.cpu.dcache.tags.tagsinuse           192.524826                       # Cycle average of tags in use
system.cpu.dcache.tags.total_refs             5071470                       # Total number of references to valid blocks.
system.cpu.dcache.tags.sampled_refs               221                       # Sample count of references to valid blocks.
system.cpu.dcache.tags.avg_refs          22947.828054                       # Average number of references to valid blocks.
system.cpu.dcache.tags.warmup_cycle            148000                       # Cycle when the warmup percentage was hit.
system.cpu.dcache.tags.occ_blocks::.cpu.data   192.524826                       # Average occupied blocks per requestor
system.cpu.dcache.tags.occ_percent::.cpu.data     0.188013                       # Average percentage of cache occupancy
system.cpu.dcache.tags.occ_percent::total     0.188013                       # Average percentage of cache occupancy
system.cpu.dcache.tags.occ_task_id_blocks::1024          218                       # Occupied blocks per task id
system.cpu.dcache.tags.age_task_id_blocks_1024::0           26                       # Occupied blocks per task id
system.cpu.dcache.tags.age_task_id_blocks_1024::4          192                       # Occupied blocks per task id
system.cpu.dcache.tags.occ_task_id_percent::1024     0.212891                       # Percentage of cache occupancy per task id
system.cpu.dcache.tags.tag_accesses          10143171                       # Number of tag accesses
system.cpu.dcache.tags.data_accesses         10143171                       # Number of data accesses

---------- End Simulation Statistics   ----------
